/*---------------------------------------------------------------------------*\
| =========                 |                                                 |
| \\      /  F ield         | OpenFOAM: The Open Source CFD Toolbox           |
|  \\    /   O peration     | Version:  2412                                  |
|   \\  /    A nd           | Website:  www.openfoam.com                      |
|    \\/     M anipulation  |                                                 |
\*---------------------------------------------------------------------------*/
Build  : _8dbc61e11c-20241220 OPENFOAM=2412 version=v2412
Arch   : "LSB;label=32;scalar=64"
Exec   : nexaFoam
Date   : Apr 06 2026
Time   : 23:55:39
Host   : furkanWorkstation
PID    : 2770005
I/O    : uncollated
Case   : /home/mf/Desktop/codeProjects/nexaFoam/tutorials/compressible/nexaFoam/heatBath_case3
nProcs : 1
trapFpe: Floating point exception trapping enabled (FOAM_SIGFPE).
fileModificationChecking : Monitoring run-time modified files using timeStampMaster (fileModificationSkew 5, maxFileModificationPolls 20)
allowSystemOperations : Allowing user-supplied system call operations

// * * * * * * * * * * * * * * * * * * * * * * * * * * * * * * * * * * * * * //
Create time

Create mesh for time = 0

Multiple species are found in mixture.

VVrelaxation = false

Selecting thermodynamics package 
{
    type            heNe2TReactionThermo;
    mixture         multiComponent2TMixture;
    transport       blottnerEucken2T;
    thermo          janaf2T;
    equationOfState perfect2TGas;
    specie          specie2T;
    energy          sensibleCalculation2T;
}

twoTemperature = true
chemistry     = false
speciesList   = "constant/speciesDict"

Viscous analysis detected.

Reading field U

Turbulence model: Laminar

fluxScheme: Kurganov

Starting time loop

Mean and max Courant Numbers = 0 0
Time = 1e-09

diagonal:  Solving for rhoCont, Initial residual = 0, Final residual = 0, No Iterations 0
diagonal:  Solving for rhoY_Y_N2, Initial residual = 0, Final residual = 0, No Iterations 0
diagonal:  Solving for rhoY_Y_O2, Initial residual = 0, Final residual = 0, No Iterations 0
diagonal:  Solving for rhoE, Initial residual = 0, Final residual = 0, No Iterations 0
diagonal:  Solving for rhoYEvib_Y_N2, Initial residual = 0, Final residual = 0, No Iterations 0
diagonal:  Solving for rhoYEvib_Y_O2, Initial residual = 0, Final residual = 0, No Iterations 0
After TTR update: 
Average translational-rotational temperature is: 4913.83
Average Y_N2 vibrational temperature is: 30000
Average Y_O2 vibrational temperature is: 30000
Sanity check: max(|rhoCont - rhoFromSpecies|) = 0

--> FOAM Warning : 
    From Foam::scalar Foam::janaf2TThermo<EquationOfState>::limit(Foam::scalar) const [with EquationOfState = Foam::perfect2TGas<Foam::specie2T>; Foam::scalar = double]
    in file ../specie/lnInclude/janaf2TThermoI.H at line 135
    attempt to use janaf2TThermo<EquationOfState> out of temperature range 200 -> 30000;  TTR = 30333.2
--> FOAM Warning : 
    From Foam::scalar Foam::janaf2TThermo<EquationOfState>::limit(Foam::scalar) const [with EquationOfState = Foam::perfect2TGas<Foam::specie2T>; Foam::scalar = double]
    in file ../specie/lnInclude/janaf2TThermoI.H at line 135
    attempt to use janaf2TThermo<EquationOfState> out of temperature range 200 -> 30000;  TTR = 30092.2
ExecutionTime = 0.02 s  ClockTime = 0 s

Mean and max Courant Numbers = 0 0
Time = 2e-09

diagonal:  Solving for rhoCont, Initial residual = 0, Final residual = 0, No Iterations 0
diagonal:  Solving for rhoY_Y_N2, Initial residual = 0, Final residual = 0, No Iterations 0
diagonal:  Solving for rhoY_Y_O2, Initial residual = 0, Final residual = 0, No Iterations 0
diagonal:  Solving for rhoE, Initial residual = 0, Final residual = 0, No Iterations 0
diagonal:  Solving for rhoYEvib_Y_N2, Initial residual = 0, Final residual = 0, No Iterations 0
diagonal:  Solving for rhoYEvib_Y_O2, Initial residual = 0, Final residual = 0, No Iterations 0
After TTR update: 
Average translational-rotational temperature is: 4917.68
Average Y_N2 vibrational temperature is: 29996.5
Average Y_O2 vibrational temperature is: 29946.5
Sanity check: max(|rhoCont - rhoFromSpecies|) = 0

--> FOAM Warning : 
    From Foam::scalar Foam::janaf2TThermo<EquationOfState>::limit(Foam::scalar) const [with EquationOfState = Foam::perfect2TGas<Foam::specie2T>; Foam::scalar = double]
    in file ../specie/lnInclude/janaf2TThermoI.H at line 135
    attempt to use janaf2TThermo<EquationOfState> out of temperature range 200 -> 30000;  TTR = 30329.3
--> FOAM Warning : 
    From Foam::scalar Foam::janaf2TThermo<EquationOfState>::limit(Foam::scalar) const [with EquationOfState = Foam::perfect2TGas<Foam::specie2T>; Foam::scalar = double]
    in file ../specie/lnInclude/janaf2TThermoI.H at line 135
    attempt to use janaf2TThermo<EquationOfState> out of temperature range 200 -> 30000;  TTR = 30040.8
ExecutionTime = 0.02 s  ClockTime = 0 s

Mean and max Courant Numbers = 0 0
Time = 3e-09

diagonal:  Solving for rhoCont, Initial residual = 0, Final residual = 0, No Iterations 0
diagonal:  Solving for rhoY_Y_N2, Initial residual = 0, Final residual = 0, No Iterations 0
diagonal:  Solving for rhoY_Y_O2, Initial residual = 0, Final residual = 0, No Iterations 0
diagonal:  Solving for rhoE, Initial residual = 0, Final residual = 0, No Iterations 0
diagonal:  Solving for rhoYEvib_Y_N2, Initial residual = 0, Final residual = 0, No Iterations 0
diagonal:  Solving for rhoYEvib_Y_O2, Initial residual = 0, Final residual = 0, No Iterations 0
After TTR update: 
Average translational-rotational temperature is: 4925.97
Average Y_N2 vibrational temperature is: 29993.3
Average Y_O2 vibrational temperature is: 29895.8
Sanity check: max(|rhoCont - rhoFromSpecies|) = 0

--> FOAM Warning : 
    From Foam::scalar Foam::janaf2TThermo<EquationOfState>::limit(Foam::scalar) const [with EquationOfState = Foam::perfect2TGas<Foam::specie2T>; Foam::scalar = double]
    in file ../specie/lnInclude/janaf2TThermoI.H at line 135
    attempt to use janaf2TThermo<EquationOfState> out of temperature range 200 -> 30000;  TTR = 30324.5
ExecutionTime = 0.02 s  ClockTime = 0 s

Mean and max Courant Numbers = 0 0
Time = 4e-09

diagonal:  Solving for rhoCont, Initial residual = 0, Final residual = 0, No Iterations 0
diagonal:  Solving for rhoY_Y_N2, Initial residual = 0, Final residual = 0, No Iterations 0
diagonal:  Solving for rhoY_Y_O2, Initial residual = 0, Final residual = 0, No Iterations 0
diagonal:  Solving for rhoE, Initial residual = 0, Final residual = 0, No Iterations 0
diagonal:  Solving for rhoYEvib_Y_N2, Initial residual = 0, Final residual = 0, No Iterations 0
diagonal:  Solving for rhoYEvib_Y_O2, Initial residual = 0, Final residual = 0, No Iterations 0
After TTR update: 
Average translational-rotational temperature is: 4935.57
Average Y_N2 vibrational temperature is: 29990.2
Average Y_O2 vibrational temperature is: 29845.4
Sanity check: max(|rhoCont - rhoFromSpecies|) = 0

--> FOAM Warning : 
    From Foam::scalar Foam::janaf2TThermo<EquationOfState>::limit(Foam::scalar) const [with EquationOfState = Foam::perfect2TGas<Foam::specie2T>; Foam::scalar = double]
    in file ../specie/lnInclude/janaf2TThermoI.H at line 135
    attempt to use janaf2TThermo<EquationOfState> out of temperature range 200 -> 30000;  TTR = 30319.5
ExecutionTime = 0.03 s  ClockTime = 0 s

Mean and max Courant Numbers = 0 0
Time = 5e-09

diagonal:  Solving for rhoCont, Initial residual = 0, Final residual = 0, No Iterations 0
diagonal:  Solving for rhoY_Y_N2, Initial residual = 0, Final residual = 0, No Iterations 0
diagonal:  Solving for rhoY_Y_O2, Initial residual = 0, Final residual = 0, No Iterations 0
diagonal:  Solving for rhoE, Initial residual = 0, Final residual = 0, No Iterations 0
diagonal:  Solving for rhoYEvib_Y_N2, Initial residual = 0, Final residual = 0, No Iterations 0
diagonal:  Solving for rhoYEvib_Y_O2, Initial residual = 0, Final residual = 0, No Iterations 0
After TTR update: 
Average translational-rotational temperature is: 4945.57
Average Y_N2 vibrational temperature is: 29986.9
Average Y_O2 vibrational temperature is: 29794.9
Sanity check: max(|rhoCont - rhoFromSpecies|) = 0

--> FOAM Warning : 
    From Foam::scalar Foam::janaf2TThermo<EquationOfState>::limit(Foam::scalar) const [with EquationOfState = Foam::perfect2TGas<Foam::specie2T>; Foam::scalar = double]
    in file ../specie/lnInclude/janaf2TThermoI.H at line 135
    attempt to use janaf2TThermo<EquationOfState> out of temperature range 200 -> 30000;  TTR = 30314.4
ExecutionTime = 0.03 s  ClockTime = 0 s

Mean and max Courant Numbers = 0 0
Time = 6e-09

diagonal:  Solving for rhoCont, Initial residual = 0, Final residual = 0, No Iterations 0
diagonal:  Solving for rhoY_Y_N2, Initial residual = 0, Final residual = 0, No Iterations 0
diagonal:  Solving for rhoY_Y_O2, Initial residual = 0, Final residual = 0, No Iterations 0
diagonal:  Solving for rhoE, Initial residual = 0, Final residual = 0, No Iterations 0
diagonal:  Solving for rhoYEvib_Y_N2, Initial residual = 0, Final residual = 0, No Iterations 0
diagonal:  Solving for rhoYEvib_Y_O2, Initial residual = 0, Final residual = 0, No Iterations 0
After TTR update: 
Average translational-rotational temperature is: 4955.73
Average Y_N2 vibrational temperature is: 29983.7
Average Y_O2 vibrational temperature is: 29744.2
Sanity check: max(|rhoCont - rhoFromSpecies|) = 0

--> FOAM Warning : 
    From Foam::scalar Foam::janaf2TThermo<EquationOfState>::limit(Foam::scalar) const [with EquationOfState = Foam::perfect2TGas<Foam::specie2T>; Foam::scalar = double]
    in file ../specie/lnInclude/janaf2TThermoI.H at line 135
    attempt to use janaf2TThermo<EquationOfState> out of temperature range 200 -> 30000;  TTR = 30309.2
ExecutionTime = 0.04 s  ClockTime = 0 s

Mean and max Courant Numbers = 0 0
Time = 7e-09

diagonal:  Solving for rhoCont, Initial residual = 0, Final residual = 0, No Iterations 0
diagonal:  Solving for rhoY_Y_N2, Initial residual = 0, Final residual = 0, No Iterations 0
diagonal:  Solving for rhoY_Y_O2, Initial residual = 0, Final residual = 0, No Iterations 0
diagonal:  Solving for rhoE, Initial residual = 0, Final residual = 0, No Iterations 0
diagonal:  Solving for rhoYEvib_Y_N2, Initial residual = 0, Final residual = 0, No Iterations 0
diagonal:  Solving for rhoYEvib_Y_O2, Initial residual = 0, Final residual = 0, No Iterations 0
After TTR update: 
Average translational-rotational temperature is: 4965.97
Average Y_N2 vibrational temperature is: 29980.4
Average Y_O2 vibrational temperature is: 29693.2
Sanity check: max(|rhoCont - rhoFromSpecies|) = 0

--> FOAM Warning : 
    From Foam::scalar Foam::janaf2TThermo<EquationOfState>::limit(Foam::scalar) const [with EquationOfState = Foam::perfect2TGas<Foam::specie2T>; Foam::scalar = double]
    in file ../specie/lnInclude/janaf2TThermoI.H at line 135
    attempt to use janaf2TThermo<EquationOfState> out of temperature range 200 -> 30000;  TTR = 30304
ExecutionTime = 0.05 s  ClockTime = 0 s

Mean and max Courant Numbers = 0 0
Time = 8e-09

diagonal:  Solving for rhoCont, Initial residual = 0, Final residual = 0, No Iterations 0
diagonal:  Solving for rhoY_Y_N2, Initial residual = 0, Final residual = 0, No Iterations 0
diagonal:  Solving for rhoY_Y_O2, Initial residual = 0, Final residual = 0, No Iterations 0
diagonal:  Solving for rhoE, Initial residual = 0, Final residual = 0, No Iterations 0
diagonal:  Solving for rhoYEvib_Y_N2, Initial residual = 0, Final residual = 0, No Iterations 0
diagonal:  Solving for rhoYEvib_Y_O2, Initial residual = 0, Final residual = 0, No Iterations 0
After TTR update: 
Average translational-rotational temperature is: 4976.28
Average Y_N2 vibrational temperature is: 29977.1
Average Y_O2 vibrational temperature is: 29642
Sanity check: max(|rhoCont - rhoFromSpecies|) = 0

--> FOAM Warning : 
    From Foam::scalar Foam::janaf2TThermo<EquationOfState>::limit(Foam::scalar) const [with EquationOfState = Foam::perfect2TGas<Foam::specie2T>; Foam::scalar = double]
    in file ../specie/lnInclude/janaf2TThermoI.H at line 135
    attempt to use janaf2TThermo<EquationOfState> out of temperature range 200 -> 30000;  TTR = 30298.8
ExecutionTime = 0.05 s  ClockTime = 0 s

Mean and max Courant Numbers = 0 0
Time = 9e-09

diagonal:  Solving for rhoCont, Initial residual = 0, Final residual = 0, No Iterations 0
diagonal:  Solving for rhoY_Y_N2, Initial residual = 0, Final residual = 0, No Iterations 0
diagonal:  Solving for rhoY_Y_O2, Initial residual = 0, Final residual = 0, No Iterations 0
diagonal:  Solving for rhoE, Initial residual = 0, Final residual = 0, No Iterations 0
diagonal:  Solving for rhoYEvib_Y_N2, Initial residual = 0, Final residual = 0, No Iterations 0
diagonal:  Solving for rhoYEvib_Y_O2, Initial residual = 0, Final residual = 0, No Iterations 0
After TTR update: 
Average translational-rotational temperature is: 4986.64
Average Y_N2 vibrational temperature is: 29973.8
Average Y_O2 vibrational temperature is: 29590.5
Sanity check: max(|rhoCont - rhoFromSpecies|) = 0

--> FOAM Warning : 
    From Foam::scalar Foam::janaf2TThermo<EquationOfState>::limit(Foam::scalar) const [with EquationOfState = Foam::perfect2TGas<Foam::specie2T>; Foam::scalar = double]
    in file ../specie/lnInclude/janaf2TThermoI.H at line 135
    attempt to use janaf2TThermo<EquationOfState> out of temperature range 200 -> 30000;  TTR = 30293.5
ExecutionTime = 0.06 s  ClockTime = 0 s

Mean and max Courant Numbers = 0 0
Time = 1e-08

diagonal:  Solving for rhoCont, Initial residual = 0, Final residual = 0, No Iterations 0
diagonal:  Solving for rhoY_Y_N2, Initial residual = 0, Final residual = 0, No Iterations 0
diagonal:  Solving for rhoY_Y_O2, Initial residual = 0, Final residual = 0, No Iterations 0
diagonal:  Solving for rhoE, Initial residual = 0, Final residual = 0, No Iterations 0
diagonal:  Solving for rhoYEvib_Y_N2, Initial residual = 0, Final residual = 0, No Iterations 0
diagonal:  Solving for rhoYEvib_Y_O2, Initial residual = 0, Final residual = 0, No Iterations 0
After TTR update: 
Average translational-rotational temperature is: 4997.06
Average Y_N2 vibrational temperature is: 29970.4
Average Y_O2 vibrational temperature is: 29538.8
Sanity check: max(|rhoCont - rhoFromSpecies|) = 0

--> FOAM Warning : 
    From Foam::scalar Foam::janaf2TThermo<EquationOfState>::limit(Foam::scalar) const [with EquationOfState = Foam::perfect2TGas<Foam::specie2T>; Foam::scalar = double]
    in file ../specie/lnInclude/janaf2TThermoI.H at line 135
    attempt to use janaf2TThermo<EquationOfState> out of temperature range 200 -> 30000;  TTR = 30288.3
ExecutionTime = 0.06 s  ClockTime = 0 s

Mean and max Courant Numbers = 0 0
Time = 1.1e-08

diagonal:  Solving for rhoCont, Initial residual = 0, Final residual = 0, No Iterations 0
diagonal:  Solving for rhoY_Y_N2, Initial residual = 0, Final residual = 0, No Iterations 0
diagonal:  Solving for rhoY_Y_O2, Initial residual = 0, Final residual = 0, No Iterations 0
diagonal:  Solving for rhoE, Initial residual = 0, Final residual = 0, No Iterations 0
diagonal:  Solving for rhoYEvib_Y_N2, Initial residual = 0, Final residual = 0, No Iterations 0
diagonal:  Solving for rhoYEvib_Y_O2, Initial residual = 0, Final residual = 0, No Iterations 0
After TTR update: 
Average translational-rotational temperature is: 5007.53
Average Y_N2 vibrational temperature is: 29967
Average Y_O2 vibrational temperature is: 29486.9
Sanity check: max(|rhoCont - rhoFromSpecies|) = 0

--> FOAM Warning : 
    From Foam::scalar Foam::janaf2TThermo<EquationOfState>::limit(Foam::scalar) const [with EquationOfState = Foam::perfect2TGas<Foam::specie2T>; Foam::scalar = double]
    in file ../specie/lnInclude/janaf2TThermoI.H at line 135
    attempt to use janaf2TThermo<EquationOfState> out of temperature range 200 -> 30000;  TTR = 30282.9
ExecutionTime = 0.06 s  ClockTime = 0 s

Mean and max Courant Numbers = 0 0
Time = 1.2e-08

diagonal:  Solving for rhoCont, Initial residual = 0, Final residual = 0, No Iterations 0
diagonal:  Solving for rhoY_Y_N2, Initial residual = 0, Final residual = 0, No Iterations 0
diagonal:  Solving for rhoY_Y_O2, Initial residual = 0, Final residual = 0, No Iterations 0
diagonal:  Solving for rhoE, Initial residual = 0, Final residual = 0, No Iterations 0
diagonal:  Solving for rhoYEvib_Y_N2, Initial residual = 0, Final residual = 0, No Iterations 0
diagonal:  Solving for rhoYEvib_Y_O2, Initial residual = 0, Final residual = 0, No Iterations 0
After TTR update: 
Average translational-rotational temperature is: 5018.06
Average Y_N2 vibrational temperature is: 29963.6
Average Y_O2 vibrational temperature is: 29434.7
Sanity check: max(|rhoCont - rhoFromSpecies|) = 0

--> FOAM Warning : 
    From Foam::scalar Foam::janaf2TThermo<EquationOfState>::limit(Foam::scalar) const [with EquationOfState = Foam::perfect2TGas<Foam::specie2T>; Foam::scalar = double]
    in file ../specie/lnInclude/janaf2TThermoI.H at line 135
    attempt to use janaf2TThermo<EquationOfState> out of temperature range 200 -> 30000;  TTR = 30277.6
ExecutionTime = 0.06 s  ClockTime = 0 s

Mean and max Courant Numbers = 0 0
Time = 1.3e-08

diagonal:  Solving for rhoCont, Initial residual = 0, Final residual = 0, No Iterations 0
diagonal:  Solving for rhoY_Y_N2, Initial residual = 0, Final residual = 0, No Iterations 0
diagonal:  Solving for rhoY_Y_O2, Initial residual = 0, Final residual = 0, No Iterations 0
diagonal:  Solving for rhoE, Initial residual = 0, Final residual = 0, No Iterations 0
diagonal:  Solving for rhoYEvib_Y_N2, Initial residual = 0, Final residual = 0, No Iterations 0
diagonal:  Solving for rhoYEvib_Y_O2, Initial residual = 0, Final residual = 0, No Iterations 0
After TTR update: 
Average translational-rotational temperature is: 5028.65
Average Y_N2 vibrational temperature is: 29960.1
Average Y_O2 vibrational temperature is: 29382.2
Sanity check: max(|rhoCont - rhoFromSpecies|) = 0

--> FOAM Warning : 
    From Foam::scalar Foam::janaf2TThermo<EquationOfState>::limit(Foam::scalar) const [with EquationOfState = Foam::perfect2TGas<Foam::specie2T>; Foam::scalar = double]
    in file ../specie/lnInclude/janaf2TThermoI.H at line 135
    attempt to use janaf2TThermo<EquationOfState> out of temperature range 200 -> 30000;  TTR = 30272.2
ExecutionTime = 0.07 s  ClockTime = 0 s

Mean and max Courant Numbers = 0 0
Time = 1.4e-08

diagonal:  Solving for rhoCont, Initial residual = 0, Final residual = 0, No Iterations 0
diagonal:  Solving for rhoY_Y_N2, Initial residual = 0, Final residual = 0, No Iterations 0
diagonal:  Solving for rhoY_Y_O2, Initial residual = 0, Final residual = 0, No Iterations 0
diagonal:  Solving for rhoE, Initial residual = 0, Final residual = 0, No Iterations 0
diagonal:  Solving for rhoYEvib_Y_N2, Initial residual = 0, Final residual = 0, No Iterations 0
diagonal:  Solving for rhoYEvib_Y_O2, Initial residual = 0, Final residual = 0, No Iterations 0
After TTR update: 
Average translational-rotational temperature is: 5039.29
Average Y_N2 vibrational temperature is: 29956.6
Average Y_O2 vibrational temperature is: 29329.5
Sanity check: max(|rhoCont - rhoFromSpecies|) = 0

--> FOAM Warning : 
    From Foam::scalar Foam::janaf2TThermo<EquationOfState>::limit(Foam::scalar) const [with EquationOfState = Foam::perfect2TGas<Foam::specie2T>; Foam::scalar = double]
    in file ../specie/lnInclude/janaf2TThermoI.H at line 135
    attempt to use janaf2TThermo<EquationOfState> out of temperature range 200 -> 30000;  TTR = 30266.7
ExecutionTime = 0.07 s  ClockTime = 0 s

Mean and max Courant Numbers = 0 0
Time = 1.5e-08

diagonal:  Solving for rhoCont, Initial residual = 0, Final residual = 0, No Iterations 0
diagonal:  Solving for rhoY_Y_N2, Initial residual = 0, Final residual = 0, No Iterations 0
diagonal:  Solving for rhoY_Y_O2, Initial residual = 0, Final residual = 0, No Iterations 0
diagonal:  Solving for rhoE, Initial residual = 0, Final residual = 0, No Iterations 0
diagonal:  Solving for rhoYEvib_Y_N2, Initial residual = 0, Final residual = 0, No Iterations 0
diagonal:  Solving for rhoYEvib_Y_O2, Initial residual = 0, Final residual = 0, No Iterations 0
After TTR update: 
Average translational-rotational temperature is: 5049.99
Average Y_N2 vibrational temperature is: 29953
Average Y_O2 vibrational temperature is: 29276.5
Sanity check: max(|rhoCont - rhoFromSpecies|) = 0

--> FOAM Warning : 
    From Foam::scalar Foam::janaf2TThermo<EquationOfState>::limit(Foam::scalar) const [with EquationOfState = Foam::perfect2TGas<Foam::specie2T>; Foam::scalar = double]
    in file ../specie/lnInclude/janaf2TThermoI.H at line 135
    attempt to use janaf2TThermo<EquationOfState> out of temperature range 200 -> 30000;  TTR = 30261.3
ExecutionTime = 0.07 s  ClockTime = 0 s

Mean and max Courant Numbers = 0 0
Time = 1.6e-08

diagonal:  Solving for rhoCont, Initial residual = 0, Final residual = 0, No Iterations 0
diagonal:  Solving for rhoY_Y_N2, Initial residual = 0, Final residual = 0, No Iterations 0
diagonal:  Solving for rhoY_Y_O2, Initial residual = 0, Final residual = 0, No Iterations 0
diagonal:  Solving for rhoE, Initial residual = 0, Final residual = 0, No Iterations 0
diagonal:  Solving for rhoYEvib_Y_N2, Initial residual = 0, Final residual = 0, No Iterations 0
diagonal:  Solving for rhoYEvib_Y_O2, Initial residual = 0, Final residual = 0, No Iterations 0
After TTR update: 
Average translational-rotational temperature is: 5060.74
Average Y_N2 vibrational temperature is: 29949.4
Average Y_O2 vibrational temperature is: 29223.2
Sanity check: max(|rhoCont - rhoFromSpecies|) = 0

--> FOAM Warning : 
    From Foam::scalar Foam::janaf2TThermo<EquationOfState>::limit(Foam::scalar) const [with EquationOfState = Foam::perfect2TGas<Foam::specie2T>; Foam::scalar = double]
    in file ../specie/lnInclude/janaf2TThermoI.H at line 135
    attempt to use janaf2TThermo<EquationOfState> out of temperature range 200 -> 30000;  TTR = 30255.8
ExecutionTime = 0.08 s  ClockTime = 0 s

Mean and max Courant Numbers = 0 0
Time = 1.7e-08

diagonal:  Solving for rhoCont, Initial residual = 0, Final residual = 0, No Iterations 0
diagonal:  Solving for rhoY_Y_N2, Initial residual = 0, Final residual = 0, No Iterations 0
diagonal:  Solving for rhoY_Y_O2, Initial residual = 0, Final residual = 0, No Iterations 0
diagonal:  Solving for rhoE, Initial residual = 0, Final residual = 0, No Iterations 0
diagonal:  Solving for rhoYEvib_Y_N2, Initial residual = 0, Final residual = 0, No Iterations 0
diagonal:  Solving for rhoYEvib_Y_O2, Initial residual = 0, Final residual = 0, No Iterations 0
After TTR update: 
Average translational-rotational temperature is: 5071.56
Average Y_N2 vibrational temperature is: 29945.8
Average Y_O2 vibrational temperature is: 29169.7
Sanity check: max(|rhoCont - rhoFromSpecies|) = 0

--> FOAM Warning : 
    From Foam::scalar Foam::janaf2TThermo<EquationOfState>::limit(Foam::scalar) const [with EquationOfState = Foam::perfect2TGas<Foam::specie2T>; Foam::scalar = double]
    in file ../specie/lnInclude/janaf2TThermoI.H at line 135
    attempt to use janaf2TThermo<EquationOfState> out of temperature range 200 -> 30000;  TTR = 30250.2
ExecutionTime = 0.09 s  ClockTime = 0 s

Mean and max Courant Numbers = 0 0
Time = 1.8e-08

diagonal:  Solving for rhoCont, Initial residual = 0, Final residual = 0, No Iterations 0
diagonal:  Solving for rhoY_Y_N2, Initial residual = 0, Final residual = 0, No Iterations 0
diagonal:  Solving for rhoY_Y_O2, Initial residual = 0, Final residual = 0, No Iterations 0
diagonal:  Solving for rhoE, Initial residual = 0, Final residual = 0, No Iterations 0
diagonal:  Solving for rhoYEvib_Y_N2, Initial residual = 0, Final residual = 0, No Iterations 0
diagonal:  Solving for rhoYEvib_Y_O2, Initial residual = 0, Final residual = 0, No Iterations 0
After TTR update: 
Average translational-rotational temperature is: 5082.43
Average Y_N2 vibrational temperature is: 29942.1
Average Y_O2 vibrational temperature is: 29115.9
Sanity check: max(|rhoCont - rhoFromSpecies|) = 0

--> FOAM Warning : 
    From Foam::scalar Foam::janaf2TThermo<EquationOfState>::limit(Foam::scalar) const [with EquationOfState = Foam::perfect2TGas<Foam::specie2T>; Foam::scalar = double]
    in file ../specie/lnInclude/janaf2TThermoI.H at line 135
    attempt to use janaf2TThermo<EquationOfState> out of temperature range 200 -> 30000;  TTR = 30244.6
ExecutionTime = 0.09 s  ClockTime = 0 s

Mean and max Courant Numbers = 0 0
Time = 1.9e-08

diagonal:  Solving for rhoCont, Initial residual = 0, Final residual = 0, No Iterations 0
diagonal:  Solving for rhoY_Y_N2, Initial residual = 0, Final residual = 0, No Iterations 0
diagonal:  Solving for rhoY_Y_O2, Initial residual = 0, Final residual = 0, No Iterations 0
diagonal:  Solving for rhoE, Initial residual = 0, Final residual = 0, No Iterations 0
diagonal:  Solving for rhoYEvib_Y_N2, Initial residual = 0, Final residual = 0, No Iterations 0
diagonal:  Solving for rhoYEvib_Y_O2, Initial residual = 0, Final residual = 0, No Iterations 0
After TTR update: 
Average translational-rotational temperature is: 5093.36
Average Y_N2 vibrational temperature is: 29938.4
Average Y_O2 vibrational temperature is: 29061.9
Sanity check: max(|rhoCont - rhoFromSpecies|) = 0

--> FOAM Warning : 
    From Foam::scalar Foam::janaf2TThermo<EquationOfState>::limit(Foam::scalar) const [with EquationOfState = Foam::perfect2TGas<Foam::specie2T>; Foam::scalar = double]
    in file ../specie/lnInclude/janaf2TThermoI.H at line 135
    attempt to use janaf2TThermo<EquationOfState> out of temperature range 200 -> 30000;  TTR = 30239
ExecutionTime = 0.1 s  ClockTime = 0 s

Mean and max Courant Numbers = 0 0
Time = 2e-08

diagonal:  Solving for rhoCont, Initial residual = 0, Final residual = 0, No Iterations 0
diagonal:  Solving for rhoY_Y_N2, Initial residual = 0, Final residual = 0, No Iterations 0
diagonal:  Solving for rhoY_Y_O2, Initial residual = 0, Final residual = 0, No Iterations 0
diagonal:  Solving for rhoE, Initial residual = 0, Final residual = 0, No Iterations 0
diagonal:  Solving for rhoYEvib_Y_N2, Initial residual = 0, Final residual = 0, No Iterations 0
diagonal:  Solving for rhoYEvib_Y_O2, Initial residual = 0, Final residual = 0, No Iterations 0
After TTR update: 
Average translational-rotational temperature is: 5104.35
Average Y_N2 vibrational temperature is: 29934.6
Average Y_O2 vibrational temperature is: 29007.6
Sanity check: max(|rhoCont - rhoFromSpecies|) = 0

--> FOAM Warning : 
    From Foam::scalar Foam::janaf2TThermo<EquationOfState>::limit(Foam::scalar) const [with EquationOfState = Foam::perfect2TGas<Foam::specie2T>; Foam::scalar = double]
    in file ../specie/lnInclude/janaf2TThermoI.H at line 135
    attempt to use janaf2TThermo<EquationOfState> out of temperature range 200 -> 30000;  TTR = 30233.4
ExecutionTime = 0.1 s  ClockTime = 0 s

Mean and max Courant Numbers = 0 0
Time = 2.1e-08

diagonal:  Solving for rhoCont, Initial residual = 0, Final residual = 0, No Iterations 0
diagonal:  Solving for rhoY_Y_N2, Initial residual = 0, Final residual = 0, No Iterations 0
diagonal:  Solving for rhoY_Y_O2, Initial residual = 0, Final residual = 0, No Iterations 0
diagonal:  Solving for rhoE, Initial residual = 0, Final residual = 0, No Iterations 0
diagonal:  Solving for rhoYEvib_Y_N2, Initial residual = 0, Final residual = 0, No Iterations 0
diagonal:  Solving for rhoYEvib_Y_O2, Initial residual = 0, Final residual = 0, No Iterations 0
After TTR update: 
Average translational-rotational temperature is: 5115.4
Average Y_N2 vibrational temperature is: 29930.8
Average Y_O2 vibrational temperature is: 28953
Sanity check: max(|rhoCont - rhoFromSpecies|) = 0

--> FOAM Warning : 
    From Foam::scalar Foam::janaf2TThermo<EquationOfState>::limit(Foam::scalar) const [with EquationOfState = Foam::perfect2TGas<Foam::specie2T>; Foam::scalar = double]
    in file ../specie/lnInclude/janaf2TThermoI.H at line 135
    attempt to use janaf2TThermo<EquationOfState> out of temperature range 200 -> 30000;  TTR = 30227.7
ExecutionTime = 0.1 s  ClockTime = 0 s

Mean and max Courant Numbers = 0 0
Time = 2.2e-08

diagonal:  Solving for rhoCont, Initial residual = 0, Final residual = 0, No Iterations 0
diagonal:  Solving for rhoY_Y_N2, Initial residual = 0, Final residual = 0, No Iterations 0
diagonal:  Solving for rhoY_Y_O2, Initial residual = 0, Final residual = 0, No Iterations 0
diagonal:  Solving for rhoE, Initial residual = 0, Final residual = 0, No Iterations 0
diagonal:  Solving for rhoYEvib_Y_N2, Initial residual = 0, Final residual = 0, No Iterations 0
diagonal:  Solving for rhoYEvib_Y_O2, Initial residual = 0, Final residual = 0, No Iterations 0
After TTR update: 
Average translational-rotational temperature is: 5126.5
Average Y_N2 vibrational temperature is: 29927
Average Y_O2 vibrational temperature is: 28898.1
Sanity check: max(|rhoCont - rhoFromSpecies|) = 0

--> FOAM Warning : 
    From Foam::scalar Foam::janaf2TThermo<EquationOfState>::limit(Foam::scalar) const [with EquationOfState = Foam::perfect2TGas<Foam::specie2T>; Foam::scalar = double]
    in file ../specie/lnInclude/janaf2TThermoI.H at line 135
    attempt to use janaf2TThermo<EquationOfState> out of temperature range 200 -> 30000;  TTR = 30221.9
ExecutionTime = 0.1 s  ClockTime = 0 s

Mean and max Courant Numbers = 0 0
Time = 2.3e-08

diagonal:  Solving for rhoCont, Initial residual = 0, Final residual = 0, No Iterations 0
diagonal:  Solving for rhoY_Y_N2, Initial residual = 0, Final residual = 0, No Iterations 0
diagonal:  Solving for rhoY_Y_O2, Initial residual = 0, Final residual = 0, No Iterations 0
diagonal:  Solving for rhoE, Initial residual = 0, Final residual = 0, No Iterations 0
diagonal:  Solving for rhoYEvib_Y_N2, Initial residual = 0, Final residual = 0, No Iterations 0
diagonal:  Solving for rhoYEvib_Y_O2, Initial residual = 0, Final residual = 0, No Iterations 0
After TTR update: 
Average translational-rotational temperature is: 5137.67
Average Y_N2 vibrational temperature is: 29923.1
Average Y_O2 vibrational temperature is: 28843
Sanity check: max(|rhoCont - rhoFromSpecies|) = 0

--> FOAM Warning : 
    From Foam::scalar Foam::janaf2TThermo<EquationOfState>::limit(Foam::scalar) const [with EquationOfState = Foam::perfect2TGas<Foam::specie2T>; Foam::scalar = double]
    in file ../specie/lnInclude/janaf2TThermoI.H at line 135
    attempt to use janaf2TThermo<EquationOfState> out of temperature range 200 -> 30000;  TTR = 30216.2
ExecutionTime = 0.11 s  ClockTime = 0 s

Mean and max Courant Numbers = 0 0
Time = 2.4e-08

diagonal:  Solving for rhoCont, Initial residual = 0, Final residual = 0, No Iterations 0
diagonal:  Solving for rhoY_Y_N2, Initial residual = 0, Final residual = 0, No Iterations 0
diagonal:  Solving for rhoY_Y_O2, Initial residual = 0, Final residual = 0, No Iterations 0
diagonal:  Solving for rhoE, Initial residual = 0, Final residual = 0, No Iterations 0
diagonal:  Solving for rhoYEvib_Y_N2, Initial residual = 0, Final residual = 0, No Iterations 0
diagonal:  Solving for rhoYEvib_Y_O2, Initial residual = 0, Final residual = 0, No Iterations 0
After TTR update: 
Average translational-rotational temperature is: 5148.9
Average Y_N2 vibrational temperature is: 29919.1
Average Y_O2 vibrational temperature is: 28787.6
Sanity check: max(|rhoCont - rhoFromSpecies|) = 0

--> FOAM Warning : 
    From Foam::scalar Foam::janaf2TThermo<EquationOfState>::limit(Foam::scalar) const [with EquationOfState = Foam::perfect2TGas<Foam::specie2T>; Foam::scalar = double]
    in file ../specie/lnInclude/janaf2TThermoI.H at line 135
    attempt to use janaf2TThermo<EquationOfState> out of temperature range 200 -> 30000;  TTR = 30210.4
ExecutionTime = 0.11 s  ClockTime = 0 s

Mean and max Courant Numbers = 0 0
Time = 2.5e-08

diagonal:  Solving for rhoCont, Initial residual = 0, Final residual = 0, No Iterations 0
diagonal:  Solving for rhoY_Y_N2, Initial residual = 0, Final residual = 0, No Iterations 0
diagonal:  Solving for rhoY_Y_O2, Initial residual = 0, Final residual = 0, No Iterations 0
diagonal:  Solving for rhoE, Initial residual = 0, Final residual = 0, No Iterations 0
diagonal:  Solving for rhoYEvib_Y_N2, Initial residual = 0, Final residual = 0, No Iterations 0
diagonal:  Solving for rhoYEvib_Y_O2, Initial residual = 0, Final residual = 0, No Iterations 0
After TTR update: 
Average translational-rotational temperature is: 5160.18
Average Y_N2 vibrational temperature is: 29915.2
Average Y_O2 vibrational temperature is: 28732
Sanity check: max(|rhoCont - rhoFromSpecies|) = 0

--> FOAM Warning : 
    From Foam::scalar Foam::janaf2TThermo<EquationOfState>::limit(Foam::scalar) const [with EquationOfState = Foam::perfect2TGas<Foam::specie2T>; Foam::scalar = double]
    in file ../specie/lnInclude/janaf2TThermoI.H at line 135
    attempt to use janaf2TThermo<EquationOfState> out of temperature range 200 -> 30000;  TTR = 30204.5
ExecutionTime = 0.11 s  ClockTime = 0 s

Mean and max Courant Numbers = 0 0
Time = 2.6e-08

diagonal:  Solving for rhoCont, Initial residual = 0, Final residual = 0, No Iterations 0
diagonal:  Solving for rhoY_Y_N2, Initial residual = 0, Final residual = 0, No Iterations 0
diagonal:  Solving for rhoY_Y_O2, Initial residual = 0, Final residual = 0, No Iterations 0
diagonal:  Solving for rhoE, Initial residual = 0, Final residual = 0, No Iterations 0
diagonal:  Solving for rhoYEvib_Y_N2, Initial residual = 0, Final residual = 0, No Iterations 0
diagonal:  Solving for rhoYEvib_Y_O2, Initial residual = 0, Final residual = 0, No Iterations 0
After TTR update: 
Average translational-rotational temperature is: 5171.53
Average Y_N2 vibrational temperature is: 29911.2
Average Y_O2 vibrational temperature is: 28676
Sanity check: max(|rhoCont - rhoFromSpecies|) = 0

--> FOAM Warning : 
    From Foam::scalar Foam::janaf2TThermo<EquationOfState>::limit(Foam::scalar) const [with EquationOfState = Foam::perfect2TGas<Foam::specie2T>; Foam::scalar = double]
    in file ../specie/lnInclude/janaf2TThermoI.H at line 135
    attempt to use janaf2TThermo<EquationOfState> out of temperature range 200 -> 30000;  TTR = 30198.6
ExecutionTime = 0.12 s  ClockTime = 0 s

Mean and max Courant Numbers = 0 0
Time = 2.7e-08

diagonal:  Solving for rhoCont, Initial residual = 0, Final residual = 0, No Iterations 0
diagonal:  Solving for rhoY_Y_N2, Initial residual = 0, Final residual = 0, No Iterations 0
diagonal:  Solving for rhoY_Y_O2, Initial residual = 0, Final residual = 0, No Iterations 0
diagonal:  Solving for rhoE, Initial residual = 0, Final residual = 0, No Iterations 0
diagonal:  Solving for rhoYEvib_Y_N2, Initial residual = 0, Final residual = 0, No Iterations 0
diagonal:  Solving for rhoYEvib_Y_O2, Initial residual = 0, Final residual = 0, No Iterations 0
After TTR update: 
Average translational-rotational temperature is: 5182.94
Average Y_N2 vibrational temperature is: 29907.1
Average Y_O2 vibrational temperature is: 28619.8
Sanity check: max(|rhoCont - rhoFromSpecies|) = 0

--> FOAM Warning : 
    From Foam::scalar Foam::janaf2TThermo<EquationOfState>::limit(Foam::scalar) const [with EquationOfState = Foam::perfect2TGas<Foam::specie2T>; Foam::scalar = double]
    in file ../specie/lnInclude/janaf2TThermoI.H at line 135
    attempt to use janaf2TThermo<EquationOfState> out of temperature range 200 -> 30000;  TTR = 30192.7
ExecutionTime = 0.12 s  ClockTime = 0 s

Mean and max Courant Numbers = 0 0
Time = 2.8e-08

diagonal:  Solving for rhoCont, Initial residual = 0, Final residual = 0, No Iterations 0
diagonal:  Solving for rhoY_Y_N2, Initial residual = 0, Final residual = 0, No Iterations 0
diagonal:  Solving for rhoY_Y_O2, Initial residual = 0, Final residual = 0, No Iterations 0
diagonal:  Solving for rhoE, Initial residual = 0, Final residual = 0, No Iterations 0
diagonal:  Solving for rhoYEvib_Y_N2, Initial residual = 0, Final residual = 0, No Iterations 0
diagonal:  Solving for rhoYEvib_Y_O2, Initial residual = 0, Final residual = 0, No Iterations 0
After TTR update: 
Average translational-rotational temperature is: 5194.41
Average Y_N2 vibrational temperature is: 29903
Average Y_O2 vibrational temperature is: 28563.3
Sanity check: max(|rhoCont - rhoFromSpecies|) = 0

--> FOAM Warning : 
    From Foam::scalar Foam::janaf2TThermo<EquationOfState>::limit(Foam::scalar) const [with EquationOfState = Foam::perfect2TGas<Foam::specie2T>; Foam::scalar = double]
    in file ../specie/lnInclude/janaf2TThermoI.H at line 135
    attempt to use janaf2TThermo<EquationOfState> out of temperature range 200 -> 30000;  TTR = 30186.7
ExecutionTime = 0.12 s  ClockTime = 0 s

Mean and max Courant Numbers = 0 0
Time = 2.9e-08

diagonal:  Solving for rhoCont, Initial residual = 0, Final residual = 0, No Iterations 0
diagonal:  Solving for rhoY_Y_N2, Initial residual = 0, Final residual = 0, No Iterations 0
diagonal:  Solving for rhoY_Y_O2, Initial residual = 0, Final residual = 0, No Iterations 0
diagonal:  Solving for rhoE, Initial residual = 0, Final residual = 0, No Iterations 0
diagonal:  Solving for rhoYEvib_Y_N2, Initial residual = 0, Final residual = 0, No Iterations 0
diagonal:  Solving for rhoYEvib_Y_O2, Initial residual = 0, Final residual = 0, No Iterations 0
After TTR update: 
Average translational-rotational temperature is: 5205.94
Average Y_N2 vibrational temperature is: 29898.8
Average Y_O2 vibrational temperature is: 28506.6
Sanity check: max(|rhoCont - rhoFromSpecies|) = 0

--> FOAM Warning : 
    From Foam::scalar Foam::janaf2TThermo<EquationOfState>::limit(Foam::scalar) const [with EquationOfState = Foam::perfect2TGas<Foam::specie2T>; Foam::scalar = double]
    in file ../specie/lnInclude/janaf2TThermoI.H at line 135
    attempt to use janaf2TThermo<EquationOfState> out of temperature range 200 -> 30000;  TTR = 30180.7
ExecutionTime = 0.13 s  ClockTime = 0 s

Mean and max Courant Numbers = 0 0
Time = 3e-08

diagonal:  Solving for rhoCont, Initial residual = 0, Final residual = 0, No Iterations 0
diagonal:  Solving for rhoY_Y_N2, Initial residual = 0, Final residual = 0, No Iterations 0
diagonal:  Solving for rhoY_Y_O2, Initial residual = 0, Final residual = 0, No Iterations 0
diagonal:  Solving for rhoE, Initial residual = 0, Final residual = 0, No Iterations 0
diagonal:  Solving for rhoYEvib_Y_N2, Initial residual = 0, Final residual = 0, No Iterations 0
diagonal:  Solving for rhoYEvib_Y_O2, Initial residual = 0, Final residual = 0, No Iterations 0
After TTR update: 
Average translational-rotational temperature is: 5217.54
Average Y_N2 vibrational temperature is: 29894.6
Average Y_O2 vibrational temperature is: 28449.5
Sanity check: max(|rhoCont - rhoFromSpecies|) = 0

--> FOAM Warning : 
    From Foam::scalar Foam::janaf2TThermo<EquationOfState>::limit(Foam::scalar) const [with EquationOfState = Foam::perfect2TGas<Foam::specie2T>; Foam::scalar = double]
    in file ../specie/lnInclude/janaf2TThermoI.H at line 135
    attempt to use janaf2TThermo<EquationOfState> out of temperature range 200 -> 30000;  TTR = 30174.6
ExecutionTime = 0.14 s  ClockTime = 1 s

Mean and max Courant Numbers = 0 0
Time = 3.1e-08

diagonal:  Solving for rhoCont, Initial residual = 0, Final residual = 0, No Iterations 0
diagonal:  Solving for rhoY_Y_N2, Initial residual = 0, Final residual = 0, No Iterations 0
diagonal:  Solving for rhoY_Y_O2, Initial residual = 0, Final residual = 0, No Iterations 0
diagonal:  Solving for rhoE, Initial residual = 0, Final residual = 0, No Iterations 0
diagonal:  Solving for rhoYEvib_Y_N2, Initial residual = 0, Final residual = 0, No Iterations 0
diagonal:  Solving for rhoYEvib_Y_O2, Initial residual = 0, Final residual = 0, No Iterations 0
After TTR update: 
Average translational-rotational temperature is: 5229.2
Average Y_N2 vibrational temperature is: 29890.4
Average Y_O2 vibrational temperature is: 28392.2
Sanity check: max(|rhoCont - rhoFromSpecies|) = 0

--> FOAM Warning : 
    From Foam::scalar Foam::janaf2TThermo<EquationOfState>::limit(Foam::scalar) const [with EquationOfState = Foam::perfect2TGas<Foam::specie2T>; Foam::scalar = double]
    in file ../specie/lnInclude/janaf2TThermoI.H at line 135
    attempt to use janaf2TThermo<EquationOfState> out of temperature range 200 -> 30000;  TTR = 30168.5
ExecutionTime = 0.14 s  ClockTime = 1 s

Mean and max Courant Numbers = 0 0
Time = 3.2e-08

diagonal:  Solving for rhoCont, Initial residual = 0, Final residual = 0, No Iterations 0
diagonal:  Solving for rhoY_Y_N2, Initial residual = 0, Final residual = 0, No Iterations 0
diagonal:  Solving for rhoY_Y_O2, Initial residual = 0, Final residual = 0, No Iterations 0
diagonal:  Solving for rhoE, Initial residual = 0, Final residual = 0, No Iterations 0
diagonal:  Solving for rhoYEvib_Y_N2, Initial residual = 0, Final residual = 0, No Iterations 0
diagonal:  Solving for rhoYEvib_Y_O2, Initial residual = 0, Final residual = 0, No Iterations 0
After TTR update: 
Average translational-rotational temperature is: 5240.92
Average Y_N2 vibrational temperature is: 29886.1
Average Y_O2 vibrational temperature is: 28334.6
Sanity check: max(|rhoCont - rhoFromSpecies|) = 0

--> FOAM Warning : 
    From Foam::scalar Foam::janaf2TThermo<EquationOfState>::limit(Foam::scalar) const [with EquationOfState = Foam::perfect2TGas<Foam::specie2T>; Foam::scalar = double]
    in file ../specie/lnInclude/janaf2TThermoI.H at line 135
    attempt to use janaf2TThermo<EquationOfState> out of temperature range 200 -> 30000;  TTR = 30162.4
ExecutionTime = 0.15 s  ClockTime = 1 s

Mean and max Courant Numbers = 0 0
Time = 3.3e-08

diagonal:  Solving for rhoCont, Initial residual = 0, Final residual = 0, No Iterations 0
diagonal:  Solving for rhoY_Y_N2, Initial residual = 0, Final residual = 0, No Iterations 0
diagonal:  Solving for rhoY_Y_O2, Initial residual = 0, Final residual = 0, No Iterations 0
diagonal:  Solving for rhoE, Initial residual = 0, Final residual = 0, No Iterations 0
diagonal:  Solving for rhoYEvib_Y_N2, Initial residual = 0, Final residual = 0, No Iterations 0
diagonal:  Solving for rhoYEvib_Y_O2, Initial residual = 0, Final residual = 0, No Iterations 0
After TTR update: 
Average translational-rotational temperature is: 5252.7
Average Y_N2 vibrational temperature is: 29881.8
Average Y_O2 vibrational temperature is: 28276.7
Sanity check: max(|rhoCont - rhoFromSpecies|) = 0

--> FOAM Warning : 
    From Foam::scalar Foam::janaf2TThermo<EquationOfState>::limit(Foam::scalar) const [with EquationOfState = Foam::perfect2TGas<Foam::specie2T>; Foam::scalar = double]
    in file ../specie/lnInclude/janaf2TThermoI.H at line 135
    attempt to use janaf2TThermo<EquationOfState> out of temperature range 200 -> 30000;  TTR = 30156.2
ExecutionTime = 0.15 s  ClockTime = 1 s

Mean and max Courant Numbers = 0 0
Time = 3.4e-08

diagonal:  Solving for rhoCont, Initial residual = 0, Final residual = 0, No Iterations 0
diagonal:  Solving for rhoY_Y_N2, Initial residual = 0, Final residual = 0, No Iterations 0
diagonal:  Solving for rhoY_Y_O2, Initial residual = 0, Final residual = 0, No Iterations 0
diagonal:  Solving for rhoE, Initial residual = 0, Final residual = 0, No Iterations 0
diagonal:  Solving for rhoYEvib_Y_N2, Initial residual = 0, Final residual = 0, No Iterations 0
diagonal:  Solving for rhoYEvib_Y_O2, Initial residual = 0, Final residual = 0, No Iterations 0
After TTR update: 
Average translational-rotational temperature is: 5264.55
Average Y_N2 vibrational temperature is: 29877.4
Average Y_O2 vibrational temperature is: 28218.6
Sanity check: max(|rhoCont - rhoFromSpecies|) = 0

--> FOAM Warning : 
    From Foam::scalar Foam::janaf2TThermo<EquationOfState>::limit(Foam::scalar) const [with EquationOfState = Foam::perfect2TGas<Foam::specie2T>; Foam::scalar = double]
    in file ../specie/lnInclude/janaf2TThermoI.H at line 135
    attempt to use janaf2TThermo<EquationOfState> out of temperature range 200 -> 30000;  TTR = 30149.9
ExecutionTime = 0.15 s  ClockTime = 1 s

Mean and max Courant Numbers = 0 0
Time = 3.5e-08

diagonal:  Solving for rhoCont, Initial residual = 0, Final residual = 0, No Iterations 0
diagonal:  Solving for rhoY_Y_N2, Initial residual = 0, Final residual = 0, No Iterations 0
diagonal:  Solving for rhoY_Y_O2, Initial residual = 0, Final residual = 0, No Iterations 0
diagonal:  Solving for rhoE, Initial residual = 0, Final residual = 0, No Iterations 0
diagonal:  Solving for rhoYEvib_Y_N2, Initial residual = 0, Final residual = 0, No Iterations 0
diagonal:  Solving for rhoYEvib_Y_O2, Initial residual = 0, Final residual = 0, No Iterations 0
After TTR update: 
Average translational-rotational temperature is: 5276.46
Average Y_N2 vibrational temperature is: 29872.9
Average Y_O2 vibrational temperature is: 28160.1
Sanity check: max(|rhoCont - rhoFromSpecies|) = 0

--> FOAM Warning : 
    From Foam::scalar Foam::janaf2TThermo<EquationOfState>::limit(Foam::scalar) const [with EquationOfState = Foam::perfect2TGas<Foam::specie2T>; Foam::scalar = double]
    in file ../specie/lnInclude/janaf2TThermoI.H at line 135
    attempt to use janaf2TThermo<EquationOfState> out of temperature range 200 -> 30000;  TTR = 30143.6
ExecutionTime = 0.16 s  ClockTime = 1 s

Mean and max Courant Numbers = 0 0
Time = 3.6e-08

diagonal:  Solving for rhoCont, Initial residual = 0, Final residual = 0, No Iterations 0
diagonal:  Solving for rhoY_Y_N2, Initial residual = 0, Final residual = 0, No Iterations 0
diagonal:  Solving for rhoY_Y_O2, Initial residual = 0, Final residual = 0, No Iterations 0
diagonal:  Solving for rhoE, Initial residual = 0, Final residual = 0, No Iterations 0
diagonal:  Solving for rhoYEvib_Y_N2, Initial residual = 0, Final residual = 0, No Iterations 0
diagonal:  Solving for rhoYEvib_Y_O2, Initial residual = 0, Final residual = 0, No Iterations 0
After TTR update: 
Average translational-rotational temperature is: 5288.43
Average Y_N2 vibrational temperature is: 29868.4
Average Y_O2 vibrational temperature is: 28101.4
Sanity check: max(|rhoCont - rhoFromSpecies|) = 0

--> FOAM Warning : 
    From Foam::scalar Foam::janaf2TThermo<EquationOfState>::limit(Foam::scalar) const [with EquationOfState = Foam::perfect2TGas<Foam::specie2T>; Foam::scalar = double]
    in file ../specie/lnInclude/janaf2TThermoI.H at line 135
    attempt to use janaf2TThermo<EquationOfState> out of temperature range 200 -> 30000;  TTR = 30137.3
ExecutionTime = 0.16 s  ClockTime = 1 s

Mean and max Courant Numbers = 0 0
Time = 3.7e-08

diagonal:  Solving for rhoCont, Initial residual = 0, Final residual = 0, No Iterations 0
diagonal:  Solving for rhoY_Y_N2, Initial residual = 0, Final residual = 0, No Iterations 0
diagonal:  Solving for rhoY_Y_O2, Initial residual = 0, Final residual = 0, No Iterations 0
diagonal:  Solving for rhoE, Initial residual = 0, Final residual = 0, No Iterations 0
diagonal:  Solving for rhoYEvib_Y_N2, Initial residual = 0, Final residual = 0, No Iterations 0
diagonal:  Solving for rhoYEvib_Y_O2, Initial residual = 0, Final residual = 0, No Iterations 0
After TTR update: 
Average translational-rotational temperature is: 5300.47
Average Y_N2 vibrational temperature is: 29863.9
Average Y_O2 vibrational temperature is: 28042.4
Sanity check: max(|rhoCont - rhoFromSpecies|) = 0

--> FOAM Warning : 
    From Foam::scalar Foam::janaf2TThermo<EquationOfState>::limit(Foam::scalar) const [with EquationOfState = Foam::perfect2TGas<Foam::specie2T>; Foam::scalar = double]
    in file ../specie/lnInclude/janaf2TThermoI.H at line 135
    attempt to use janaf2TThermo<EquationOfState> out of temperature range 200 -> 30000;  TTR = 30130.9
ExecutionTime = 0.16 s  ClockTime = 1 s

Mean and max Courant Numbers = 0 0
Time = 3.8e-08

diagonal:  Solving for rhoCont, Initial residual = 0, Final residual = 0, No Iterations 0
diagonal:  Solving for rhoY_Y_N2, Initial residual = 0, Final residual = 0, No Iterations 0
diagonal:  Solving for rhoY_Y_O2, Initial residual = 0, Final residual = 0, No Iterations 0
diagonal:  Solving for rhoE, Initial residual = 0, Final residual = 0, No Iterations 0
diagonal:  Solving for rhoYEvib_Y_N2, Initial residual = 0, Final residual = 0, No Iterations 0
diagonal:  Solving for rhoYEvib_Y_O2, Initial residual = 0, Final residual = 0, No Iterations 0
After TTR update: 
Average translational-rotational temperature is: 5312.58
Average Y_N2 vibrational temperature is: 29859.3
Average Y_O2 vibrational temperature is: 27983
Sanity check: max(|rhoCont - rhoFromSpecies|) = 0

--> FOAM Warning : 
    From Foam::scalar Foam::janaf2TThermo<EquationOfState>::limit(Foam::scalar) const [with EquationOfState = Foam::perfect2TGas<Foam::specie2T>; Foam::scalar = double]
    in file ../specie/lnInclude/janaf2TThermoI.H at line 135
    attempt to use janaf2TThermo<EquationOfState> out of temperature range 200 -> 30000;  TTR = 30124.5
ExecutionTime = 0.16 s  ClockTime = 1 s

Mean and max Courant Numbers = 0 0
Time = 3.9e-08

diagonal:  Solving for rhoCont, Initial residual = 0, Final residual = 0, No Iterations 0
diagonal:  Solving for rhoY_Y_N2, Initial residual = 0, Final residual = 0, No Iterations 0
diagonal:  Solving for rhoY_Y_O2, Initial residual = 0, Final residual = 0, No Iterations 0
diagonal:  Solving for rhoE, Initial residual = 0, Final residual = 0, No Iterations 0
diagonal:  Solving for rhoYEvib_Y_N2, Initial residual = 0, Final residual = 0, No Iterations 0
diagonal:  Solving for rhoYEvib_Y_O2, Initial residual = 0, Final residual = 0, No Iterations 0
After TTR update: 
Average translational-rotational temperature is: 5324.75
Average Y_N2 vibrational temperature is: 29854.7
Average Y_O2 vibrational temperature is: 27923.4
Sanity check: max(|rhoCont - rhoFromSpecies|) = 0

--> FOAM Warning : 
    From Foam::scalar Foam::janaf2TThermo<EquationOfState>::limit(Foam::scalar) const [with EquationOfState = Foam::perfect2TGas<Foam::specie2T>; Foam::scalar = double]
    in file ../specie/lnInclude/janaf2TThermoI.H at line 135
    attempt to use janaf2TThermo<EquationOfState> out of temperature range 200 -> 30000;  TTR = 30118
ExecutionTime = 0.18 s  ClockTime = 1 s

Mean and max Courant Numbers = 0 0
Time = 4e-08

diagonal:  Solving for rhoCont, Initial residual = 0, Final residual = 0, No Iterations 0
diagonal:  Solving for rhoY_Y_N2, Initial residual = 0, Final residual = 0, No Iterations 0
diagonal:  Solving for rhoY_Y_O2, Initial residual = 0, Final residual = 0, No Iterations 0
diagonal:  Solving for rhoE, Initial residual = 0, Final residual = 0, No Iterations 0
diagonal:  Solving for rhoYEvib_Y_N2, Initial residual = 0, Final residual = 0, No Iterations 0
diagonal:  Solving for rhoYEvib_Y_O2, Initial residual = 0, Final residual = 0, No Iterations 0
After TTR update: 
Average translational-rotational temperature is: 5336.98
Average Y_N2 vibrational temperature is: 29850
Average Y_O2 vibrational temperature is: 27863.6
Sanity check: max(|rhoCont - rhoFromSpecies|) = 0

--> FOAM Warning : 
    From Foam::scalar Foam::janaf2TThermo<EquationOfState>::limit(Foam::scalar) const [with EquationOfState = Foam::perfect2TGas<Foam::specie2T>; Foam::scalar = double]
    in file ../specie/lnInclude/janaf2TThermoI.H at line 135
    attempt to use janaf2TThermo<EquationOfState> out of temperature range 200 -> 30000;  TTR = 30111.5
ExecutionTime = 0.18 s  ClockTime = 1 s

Mean and max Courant Numbers = 0 0
Time = 4.1e-08

diagonal:  Solving for rhoCont, Initial residual = 0, Final residual = 0, No Iterations 0
diagonal:  Solving for rhoY_Y_N2, Initial residual = 0, Final residual = 0, No Iterations 0
diagonal:  Solving for rhoY_Y_O2, Initial residual = 0, Final residual = 0, No Iterations 0
diagonal:  Solving for rhoE, Initial residual = 0, Final residual = 0, No Iterations 0
diagonal:  Solving for rhoYEvib_Y_N2, Initial residual = 0, Final residual = 0, No Iterations 0
diagonal:  Solving for rhoYEvib_Y_O2, Initial residual = 0, Final residual = 0, No Iterations 0
After TTR update: 
Average translational-rotational temperature is: 5349.28
Average Y_N2 vibrational temperature is: 29845.2
Average Y_O2 vibrational temperature is: 27803.4
Sanity check: max(|rhoCont - rhoFromSpecies|) = 0

--> FOAM Warning : 
    From Foam::scalar Foam::janaf2TThermo<EquationOfState>::limit(Foam::scalar) const [with EquationOfState = Foam::perfect2TGas<Foam::specie2T>; Foam::scalar = double]
    in file ../specie/lnInclude/janaf2TThermoI.H at line 135
    attempt to use janaf2TThermo<EquationOfState> out of temperature range 200 -> 30000;  TTR = 30104.9
ExecutionTime = 0.18 s  ClockTime = 1 s

Mean and max Courant Numbers = 0 0
Time = 4.2e-08

diagonal:  Solving for rhoCont, Initial residual = 0, Final residual = 0, No Iterations 0
diagonal:  Solving for rhoY_Y_N2, Initial residual = 0, Final residual = 0, No Iterations 0
diagonal:  Solving for rhoY_Y_O2, Initial residual = 0, Final residual = 0, No Iterations 0
diagonal:  Solving for rhoE, Initial residual = 0, Final residual = 0, No Iterations 0
diagonal:  Solving for rhoYEvib_Y_N2, Initial residual = 0, Final residual = 0, No Iterations 0
diagonal:  Solving for rhoYEvib_Y_O2, Initial residual = 0, Final residual = 0, No Iterations 0
After TTR update: 
Average translational-rotational temperature is: 5361.65
Average Y_N2 vibrational temperature is: 29840.4
Average Y_O2 vibrational temperature is: 27742.9
Sanity check: max(|rhoCont - rhoFromSpecies|) = 0

--> FOAM Warning : 
    From Foam::scalar Foam::janaf2TThermo<EquationOfState>::limit(Foam::scalar) const [with EquationOfState = Foam::perfect2TGas<Foam::specie2T>; Foam::scalar = double]
    in file ../specie/lnInclude/janaf2TThermoI.H at line 135
    attempt to use janaf2TThermo<EquationOfState> out of temperature range 200 -> 30000;  TTR = 30098.2
ExecutionTime = 0.19 s  ClockTime = 1 s

Mean and max Courant Numbers = 0 0
Time = 4.3e-08

diagonal:  Solving for rhoCont, Initial residual = 0, Final residual = 0, No Iterations 0
diagonal:  Solving for rhoY_Y_N2, Initial residual = 0, Final residual = 0, No Iterations 0
diagonal:  Solving for rhoY_Y_O2, Initial residual = 0, Final residual = 0, No Iterations 0
diagonal:  Solving for rhoE, Initial residual = 0, Final residual = 0, No Iterations 0
diagonal:  Solving for rhoYEvib_Y_N2, Initial residual = 0, Final residual = 0, No Iterations 0
diagonal:  Solving for rhoYEvib_Y_O2, Initial residual = 0, Final residual = 0, No Iterations 0
After TTR update: 
Average translational-rotational temperature is: 5374.08
Average Y_N2 vibrational temperature is: 29835.5
Average Y_O2 vibrational temperature is: 27682.1
Sanity check: max(|rhoCont - rhoFromSpecies|) = 0

--> FOAM Warning : 
    From Foam::scalar Foam::janaf2TThermo<EquationOfState>::limit(Foam::scalar) const [with EquationOfState = Foam::perfect2TGas<Foam::specie2T>; Foam::scalar = double]
    in file ../specie/lnInclude/janaf2TThermoI.H at line 135
    attempt to use janaf2TThermo<EquationOfState> out of temperature range 200 -> 30000;  TTR = 30091.5
ExecutionTime = 0.19 s  ClockTime = 1 s

Mean and max Courant Numbers = 0 0
Time = 4.4e-08

diagonal:  Solving for rhoCont, Initial residual = 0, Final residual = 0, No Iterations 0
diagonal:  Solving for rhoY_Y_N2, Initial residual = 0, Final residual = 0, No Iterations 0
diagonal:  Solving for rhoY_Y_O2, Initial residual = 0, Final residual = 0, No Iterations 0
diagonal:  Solving for rhoE, Initial residual = 0, Final residual = 0, No Iterations 0
diagonal:  Solving for rhoYEvib_Y_N2, Initial residual = 0, Final residual = 0, No Iterations 0
diagonal:  Solving for rhoYEvib_Y_O2, Initial residual = 0, Final residual = 0, No Iterations 0
After TTR update: 
Average translational-rotational temperature is: 5386.59
Average Y_N2 vibrational temperature is: 29830.6
Average Y_O2 vibrational temperature is: 27621.1
Sanity check: max(|rhoCont - rhoFromSpecies|) = 0

--> FOAM Warning : 
    From Foam::scalar Foam::janaf2TThermo<EquationOfState>::limit(Foam::scalar) const [with EquationOfState = Foam::perfect2TGas<Foam::specie2T>; Foam::scalar = double]
    in file ../specie/lnInclude/janaf2TThermoI.H at line 135
    attempt to use janaf2TThermo<EquationOfState> out of temperature range 200 -> 30000;  TTR = 30084.8
ExecutionTime = 0.19 s  ClockTime = 1 s

Mean and max Courant Numbers = 0 0
Time = 4.5e-08

diagonal:  Solving for rhoCont, Initial residual = 0, Final residual = 0, No Iterations 0
diagonal:  Solving for rhoY_Y_N2, Initial residual = 0, Final residual = 0, No Iterations 0
diagonal:  Solving for rhoY_Y_O2, Initial residual = 0, Final residual = 0, No Iterations 0
diagonal:  Solving for rhoE, Initial residual = 0, Final residual = 0, No Iterations 0
diagonal:  Solving for rhoYEvib_Y_N2, Initial residual = 0, Final residual = 0, No Iterations 0
diagonal:  Solving for rhoYEvib_Y_O2, Initial residual = 0, Final residual = 0, No Iterations 0
After TTR update: 
Average translational-rotational temperature is: 5399.15
Average Y_N2 vibrational temperature is: 29825.6
Average Y_O2 vibrational temperature is: 27559.7
Sanity check: max(|rhoCont - rhoFromSpecies|) = 0

--> FOAM Warning : 
    From Foam::scalar Foam::janaf2TThermo<EquationOfState>::limit(Foam::scalar) const [with EquationOfState = Foam::perfect2TGas<Foam::specie2T>; Foam::scalar = double]
    in file ../specie/lnInclude/janaf2TThermoI.H at line 135
    attempt to use janaf2TThermo<EquationOfState> out of temperature range 200 -> 30000;  TTR = 30078
ExecutionTime = 0.2 s  ClockTime = 1 s

Mean and max Courant Numbers = 0 0
Time = 4.6e-08

diagonal:  Solving for rhoCont, Initial residual = 0, Final residual = 0, No Iterations 0
diagonal:  Solving for rhoY_Y_N2, Initial residual = 0, Final residual = 0, No Iterations 0
diagonal:  Solving for rhoY_Y_O2, Initial residual = 0, Final residual = 0, No Iterations 0
diagonal:  Solving for rhoE, Initial residual = 0, Final residual = 0, No Iterations 0
diagonal:  Solving for rhoYEvib_Y_N2, Initial residual = 0, Final residual = 0, No Iterations 0
diagonal:  Solving for rhoYEvib_Y_O2, Initial residual = 0, Final residual = 0, No Iterations 0
After TTR update: 
Average translational-rotational temperature is: 5411.79
Average Y_N2 vibrational temperature is: 29820.6
Average Y_O2 vibrational temperature is: 27498.1
Sanity check: max(|rhoCont - rhoFromSpecies|) = 0

--> FOAM Warning : 
    From Foam::scalar Foam::janaf2TThermo<EquationOfState>::limit(Foam::scalar) const [with EquationOfState = Foam::perfect2TGas<Foam::specie2T>; Foam::scalar = double]
    in file ../specie/lnInclude/janaf2TThermoI.H at line 135
    attempt to use janaf2TThermo<EquationOfState> out of temperature range 200 -> 30000;  TTR = 30071.2
ExecutionTime = 0.2 s  ClockTime = 1 s

Mean and max Courant Numbers = 0 0
Time = 4.7e-08

diagonal:  Solving for rhoCont, Initial residual = 0, Final residual = 0, No Iterations 0
diagonal:  Solving for rhoY_Y_N2, Initial residual = 0, Final residual = 0, No Iterations 0
diagonal:  Solving for rhoY_Y_O2, Initial residual = 0, Final residual = 0, No Iterations 0
diagonal:  Solving for rhoE, Initial residual = 0, Final residual = 0, No Iterations 0
diagonal:  Solving for rhoYEvib_Y_N2, Initial residual = 0, Final residual = 0, No Iterations 0
diagonal:  Solving for rhoYEvib_Y_O2, Initial residual = 0, Final residual = 0, No Iterations 0
After TTR update: 
Average translational-rotational temperature is: 5424.5
Average Y_N2 vibrational temperature is: 29815.5
Average Y_O2 vibrational temperature is: 27436.2
Sanity check: max(|rhoCont - rhoFromSpecies|) = 0

--> FOAM Warning : 
    From Foam::scalar Foam::janaf2TThermo<EquationOfState>::limit(Foam::scalar) const [with EquationOfState = Foam::perfect2TGas<Foam::specie2T>; Foam::scalar = double]
    in file ../specie/lnInclude/janaf2TThermoI.H at line 135
    attempt to use janaf2TThermo<EquationOfState> out of temperature range 200 -> 30000;  TTR = 30064.3
ExecutionTime = 0.2 s  ClockTime = 1 s

Mean and max Courant Numbers = 0 0
Time = 4.8e-08

diagonal:  Solving for rhoCont, Initial residual = 0, Final residual = 0, No Iterations 0
diagonal:  Solving for rhoY_Y_N2, Initial residual = 0, Final residual = 0, No Iterations 0
diagonal:  Solving for rhoY_Y_O2, Initial residual = 0, Final residual = 0, No Iterations 0
diagonal:  Solving for rhoE, Initial residual = 0, Final residual = 0, No Iterations 0
diagonal:  Solving for rhoYEvib_Y_N2, Initial residual = 0, Final residual = 0, No Iterations 0
diagonal:  Solving for rhoYEvib_Y_O2, Initial residual = 0, Final residual = 0, No Iterations 0
After TTR update: 
Average translational-rotational temperature is: 5437.27
Average Y_N2 vibrational temperature is: 29810.4
Average Y_O2 vibrational temperature is: 27373.9
Sanity check: max(|rhoCont - rhoFromSpecies|) = 0

--> FOAM Warning : 
    From Foam::scalar Foam::janaf2TThermo<EquationOfState>::limit(Foam::scalar) const [with EquationOfState = Foam::perfect2TGas<Foam::specie2T>; Foam::scalar = double]
    in file ../specie/lnInclude/janaf2TThermoI.H at line 135
    attempt to use janaf2TThermo<EquationOfState> out of temperature range 200 -> 30000;  TTR = 30057.3
ExecutionTime = 0.21 s  ClockTime = 1 s

Mean and max Courant Numbers = 0 0
Time = 4.9e-08

diagonal:  Solving for rhoCont, Initial residual = 0, Final residual = 0, No Iterations 0
diagonal:  Solving for rhoY_Y_N2, Initial residual = 0, Final residual = 0, No Iterations 0
diagonal:  Solving for rhoY_Y_O2, Initial residual = 0, Final residual = 0, No Iterations 0
diagonal:  Solving for rhoE, Initial residual = 0, Final residual = 0, No Iterations 0
diagonal:  Solving for rhoYEvib_Y_N2, Initial residual = 0, Final residual = 0, No Iterations 0
diagonal:  Solving for rhoYEvib_Y_O2, Initial residual = 0, Final residual = 0, No Iterations 0
After TTR update: 
Average translational-rotational temperature is: 5450.11
Average Y_N2 vibrational temperature is: 29805.1
Average Y_O2 vibrational temperature is: 27311.4
Sanity check: max(|rhoCont - rhoFromSpecies|) = 0

--> FOAM Warning : 
    From Foam::scalar Foam::janaf2TThermo<EquationOfState>::limit(Foam::scalar) const [with EquationOfState = Foam::perfect2TGas<Foam::specie2T>; Foam::scalar = double]
    in file ../specie/lnInclude/janaf2TThermoI.H at line 135
    attempt to use janaf2TThermo<EquationOfState> out of temperature range 200 -> 30000;  TTR = 30050.3
ExecutionTime = 0.21 s  ClockTime = 1 s

Mean and max Courant Numbers = 0 0
Time = 5e-08

diagonal:  Solving for rhoCont, Initial residual = 0, Final residual = 0, No Iterations 0
diagonal:  Solving for rhoY_Y_N2, Initial residual = 0, Final residual = 0, No Iterations 0
diagonal:  Solving for rhoY_Y_O2, Initial residual = 0, Final residual = 0, No Iterations 0
diagonal:  Solving for rhoE, Initial residual = 0, Final residual = 0, No Iterations 0
diagonal:  Solving for rhoYEvib_Y_N2, Initial residual = 0, Final residual = 0, No Iterations 0
diagonal:  Solving for rhoYEvib_Y_O2, Initial residual = 0, Final residual = 0, No Iterations 0
After TTR update: 
Average translational-rotational temperature is: 5463.02
Average Y_N2 vibrational temperature is: 29799.9
Average Y_O2 vibrational temperature is: 27248.5
Sanity check: max(|rhoCont - rhoFromSpecies|) = 0

--> FOAM Warning : 
    From Foam::scalar Foam::janaf2TThermo<EquationOfState>::limit(Foam::scalar) const [with EquationOfState = Foam::perfect2TGas<Foam::specie2T>; Foam::scalar = double]
    in file ../specie/lnInclude/janaf2TThermoI.H at line 135
    attempt to use janaf2TThermo<EquationOfState> out of temperature range 200 -> 30000;  TTR = 30043.2
ExecutionTime = 0.22 s  ClockTime = 1 s

Mean and max Courant Numbers = 0 0
Time = 5.1e-08

diagonal:  Solving for rhoCont, Initial residual = 0, Final residual = 0, No Iterations 0
diagonal:  Solving for rhoY_Y_N2, Initial residual = 0, Final residual = 0, No Iterations 0
diagonal:  Solving for rhoY_Y_O2, Initial residual = 0, Final residual = 0, No Iterations 0
diagonal:  Solving for rhoE, Initial residual = 0, Final residual = 0, No Iterations 0
diagonal:  Solving for rhoYEvib_Y_N2, Initial residual = 0, Final residual = 0, No Iterations 0
diagonal:  Solving for rhoYEvib_Y_O2, Initial residual = 0, Final residual = 0, No Iterations 0
After TTR update: 
Average translational-rotational temperature is: 5476
Average Y_N2 vibrational temperature is: 29794.5
Average Y_O2 vibrational temperature is: 27185.4
Sanity check: max(|rhoCont - rhoFromSpecies|) = 0

--> FOAM Warning : 
    From Foam::scalar Foam::janaf2TThermo<EquationOfState>::limit(Foam::scalar) const [with EquationOfState = Foam::perfect2TGas<Foam::specie2T>; Foam::scalar = double]
    in file ../specie/lnInclude/janaf2TThermoI.H at line 135
    attempt to use janaf2TThermo<EquationOfState> out of temperature range 200 -> 30000;  TTR = 30036.1
ExecutionTime = 0.23 s  ClockTime = 1 s

Mean and max Courant Numbers = 0 0
Time = 5.2e-08

diagonal:  Solving for rhoCont, Initial residual = 0, Final residual = 0, No Iterations 0
diagonal:  Solving for rhoY_Y_N2, Initial residual = 0, Final residual = 0, No Iterations 0
diagonal:  Solving for rhoY_Y_O2, Initial residual = 0, Final residual = 0, No Iterations 0
diagonal:  Solving for rhoE, Initial residual = 0, Final residual = 0, No Iterations 0
diagonal:  Solving for rhoYEvib_Y_N2, Initial residual = 0, Final residual = 0, No Iterations 0
diagonal:  Solving for rhoYEvib_Y_O2, Initial residual = 0, Final residual = 0, No Iterations 0
After TTR update: 
Average translational-rotational temperature is: 5489.05
Average Y_N2 vibrational temperature is: 29789.1
Average Y_O2 vibrational temperature is: 27122
Sanity check: max(|rhoCont - rhoFromSpecies|) = 0

--> FOAM Warning : 
    From Foam::scalar Foam::janaf2TThermo<EquationOfState>::limit(Foam::scalar) const [with EquationOfState = Foam::perfect2TGas<Foam::specie2T>; Foam::scalar = double]
    in file ../specie/lnInclude/janaf2TThermoI.H at line 135
    attempt to use janaf2TThermo<EquationOfState> out of temperature range 200 -> 30000;  TTR = 30028.9
ExecutionTime = 0.23 s  ClockTime = 1 s

Mean and max Courant Numbers = 0 0
Time = 5.3e-08

diagonal:  Solving for rhoCont, Initial residual = 0, Final residual = 0, No Iterations 0
diagonal:  Solving for rhoY_Y_N2, Initial residual = 0, Final residual = 0, No Iterations 0
diagonal:  Solving for rhoY_Y_O2, Initial residual = 0, Final residual = 0, No Iterations 0
diagonal:  Solving for rhoE, Initial residual = 0, Final residual = 0, No Iterations 0
diagonal:  Solving for rhoYEvib_Y_N2, Initial residual = 0, Final residual = 0, No Iterations 0
diagonal:  Solving for rhoYEvib_Y_O2, Initial residual = 0, Final residual = 0, No Iterations 0
After TTR update: 
Average translational-rotational temperature is: 5502.17
Average Y_N2 vibrational temperature is: 29783.7
Average Y_O2 vibrational temperature is: 27058.2
Sanity check: max(|rhoCont - rhoFromSpecies|) = 0

--> FOAM Warning : 
    From Foam::scalar Foam::janaf2TThermo<EquationOfState>::limit(Foam::scalar) const [with EquationOfState = Foam::perfect2TGas<Foam::specie2T>; Foam::scalar = double]
    in file ../specie/lnInclude/janaf2TThermoI.H at line 135
    attempt to use janaf2TThermo<EquationOfState> out of temperature range 200 -> 30000;  TTR = 30021.6
ExecutionTime = 0.23 s  ClockTime = 1 s

Mean and max Courant Numbers = 0 0
Time = 5.4e-08

diagonal:  Solving for rhoCont, Initial residual = 0, Final residual = 0, No Iterations 0
diagonal:  Solving for rhoY_Y_N2, Initial residual = 0, Final residual = 0, No Iterations 0
diagonal:  Solving for rhoY_Y_O2, Initial residual = 0, Final residual = 0, No Iterations 0
diagonal:  Solving for rhoE, Initial residual = 0, Final residual = 0, No Iterations 0
diagonal:  Solving for rhoYEvib_Y_N2, Initial residual = 0, Final residual = 0, No Iterations 0
diagonal:  Solving for rhoYEvib_Y_O2, Initial residual = 0, Final residual = 0, No Iterations 0
After TTR update: 
Average translational-rotational temperature is: 5515.36
Average Y_N2 vibrational temperature is: 29778.2
Average Y_O2 vibrational temperature is: 26994.2
Sanity check: max(|rhoCont - rhoFromSpecies|) = 0

--> FOAM Warning : 
    From Foam::scalar Foam::janaf2TThermo<EquationOfState>::limit(Foam::scalar) const [with EquationOfState = Foam::perfect2TGas<Foam::specie2T>; Foam::scalar = double]
    in file ../specie/lnInclude/janaf2TThermoI.H at line 135
    attempt to use janaf2TThermo<EquationOfState> out of temperature range 200 -> 30000;  TTR = 30014.3
ExecutionTime = 0.23 s  ClockTime = 1 s

Mean and max Courant Numbers = 0 0
Time = 5.5e-08

diagonal:  Solving for rhoCont, Initial residual = 0, Final residual = 0, No Iterations 0
diagonal:  Solving for rhoY_Y_N2, Initial residual = 0, Final residual = 0, No Iterations 0
diagonal:  Solving for rhoY_Y_O2, Initial residual = 0, Final residual = 0, No Iterations 0
diagonal:  Solving for rhoE, Initial residual = 0, Final residual = 0, No Iterations 0
diagonal:  Solving for rhoYEvib_Y_N2, Initial residual = 0, Final residual = 0, No Iterations 0
diagonal:  Solving for rhoYEvib_Y_O2, Initial residual = 0, Final residual = 0, No Iterations 0
After TTR update: 
Average translational-rotational temperature is: 5528.62
Average Y_N2 vibrational temperature is: 29772.6
Average Y_O2 vibrational temperature is: 26929.9
Sanity check: max(|rhoCont - rhoFromSpecies|) = 0

--> FOAM Warning : 
    From Foam::scalar Foam::janaf2TThermo<EquationOfState>::limit(Foam::scalar) const [with EquationOfState = Foam::perfect2TGas<Foam::specie2T>; Foam::scalar = double]
    in file ../specie/lnInclude/janaf2TThermoI.H at line 135
    attempt to use janaf2TThermo<EquationOfState> out of temperature range 200 -> 30000;  TTR = 30006.9
ExecutionTime = 0.24 s  ClockTime = 1 s

Mean and max Courant Numbers = 0 0
Time = 5.6e-08

diagonal:  Solving for rhoCont, Initial residual = 0, Final residual = 0, No Iterations 0
diagonal:  Solving for rhoY_Y_N2, Initial residual = 0, Final residual = 0, No Iterations 0
diagonal:  Solving for rhoY_Y_O2, Initial residual = 0, Final residual = 0, No Iterations 0
diagonal:  Solving for rhoE, Initial residual = 0, Final residual = 0, No Iterations 0
diagonal:  Solving for rhoYEvib_Y_N2, Initial residual = 0, Final residual = 0, No Iterations 0
diagonal:  Solving for rhoYEvib_Y_O2, Initial residual = 0, Final residual = 0, No Iterations 0
After TTR update: 
Average translational-rotational temperature is: 5541.95
Average Y_N2 vibrational temperature is: 29766.9
Average Y_O2 vibrational temperature is: 26865.2
Sanity check: max(|rhoCont - rhoFromSpecies|) = 0

ExecutionTime = 0.24 s  ClockTime = 1 s

Mean and max Courant Numbers = 0 0
Time = 5.7e-08

diagonal:  Solving for rhoCont, Initial residual = 0, Final residual = 0, No Iterations 0
diagonal:  Solving for rhoY_Y_N2, Initial residual = 0, Final residual = 0, No Iterations 0
diagonal:  Solving for rhoY_Y_O2, Initial residual = 0, Final residual = 0, No Iterations 0
diagonal:  Solving for rhoE, Initial residual = 0, Final residual = 0, No Iterations 0
diagonal:  Solving for rhoYEvib_Y_N2, Initial residual = 0, Final residual = 0, No Iterations 0
diagonal:  Solving for rhoYEvib_Y_O2, Initial residual = 0, Final residual = 0, No Iterations 0
After TTR update: 
Average translational-rotational temperature is: 5555.36
Average Y_N2 vibrational temperature is: 29761.2
Average Y_O2 vibrational temperature is: 26800.3
Sanity check: max(|rhoCont - rhoFromSpecies|) = 0

ExecutionTime = 0.24 s  ClockTime = 1 s

Mean and max Courant Numbers = 0 0
Time = 5.8e-08

diagonal:  Solving for rhoCont, Initial residual = 0, Final residual = 0, No Iterations 0
diagonal:  Solving for rhoY_Y_N2, Initial residual = 0, Final residual = 0, No Iterations 0
diagonal:  Solving for rhoY_Y_O2, Initial residual = 0, Final residual = 0, No Iterations 0
diagonal:  Solving for rhoE, Initial residual = 0, Final residual = 0, No Iterations 0
diagonal:  Solving for rhoYEvib_Y_N2, Initial residual = 0, Final residual = 0, No Iterations 0
diagonal:  Solving for rhoYEvib_Y_O2, Initial residual = 0, Final residual = 0, No Iterations 0
After TTR update: 
Average translational-rotational temperature is: 5568.83
Average Y_N2 vibrational temperature is: 29755.4
Average Y_O2 vibrational temperature is: 26735
Sanity check: max(|rhoCont - rhoFromSpecies|) = 0

ExecutionTime = 0.26 s  ClockTime = 1 s

Mean and max Courant Numbers = 0 0
Time = 5.9e-08

diagonal:  Solving for rhoCont, Initial residual = 0, Final residual = 0, No Iterations 0
diagonal:  Solving for rhoY_Y_N2, Initial residual = 0, Final residual = 0, No Iterations 0
diagonal:  Solving for rhoY_Y_O2, Initial residual = 0, Final residual = 0, No Iterations 0
diagonal:  Solving for rhoE, Initial residual = 0, Final residual = 0, No Iterations 0
diagonal:  Solving for rhoYEvib_Y_N2, Initial residual = 0, Final residual = 0, No Iterations 0
diagonal:  Solving for rhoYEvib_Y_O2, Initial residual = 0, Final residual = 0, No Iterations 0
After TTR update: 
Average translational-rotational temperature is: 5582.38
Average Y_N2 vibrational temperature is: 29749.5
Average Y_O2 vibrational temperature is: 26669.5
Sanity check: max(|rhoCont - rhoFromSpecies|) = 0

ExecutionTime = 0.26 s  ClockTime = 1 s

Mean and max Courant Numbers = 0 0
Time = 6e-08

diagonal:  Solving for rhoCont, Initial residual = 0, Final residual = 0, No Iterations 0
diagonal:  Solving for rhoY_Y_N2, Initial residual = 0, Final residual = 0, No Iterations 0
diagonal:  Solving for rhoY_Y_O2, Initial residual = 0, Final residual = 0, No Iterations 0
diagonal:  Solving for rhoE, Initial residual = 0, Final residual = 0, No Iterations 0
diagonal:  Solving for rhoYEvib_Y_N2, Initial residual = 0, Final residual = 0, No Iterations 0
diagonal:  Solving for rhoYEvib_Y_O2, Initial residual = 0, Final residual = 0, No Iterations 0
After TTR update: 
Average translational-rotational temperature is: 5595.99
Average Y_N2 vibrational temperature is: 29743.6
Average Y_O2 vibrational temperature is: 26603.6
Sanity check: max(|rhoCont - rhoFromSpecies|) = 0

ExecutionTime = 0.26 s  ClockTime = 1 s

Mean and max Courant Numbers = 0 0
Time = 6.1e-08

diagonal:  Solving for rhoCont, Initial residual = 0, Final residual = 0, No Iterations 0
diagonal:  Solving for rhoY_Y_N2, Initial residual = 0, Final residual = 0, No Iterations 0
diagonal:  Solving for rhoY_Y_O2, Initial residual = 0, Final residual = 0, No Iterations 0
diagonal:  Solving for rhoE, Initial residual = 0, Final residual = 0, No Iterations 0
diagonal:  Solving for rhoYEvib_Y_N2, Initial residual = 0, Final residual = 0, No Iterations 0
diagonal:  Solving for rhoYEvib_Y_O2, Initial residual = 0, Final residual = 0, No Iterations 0
After TTR update: 
Average translational-rotational temperature is: 5609.69
Average Y_N2 vibrational temperature is: 29737.6
Average Y_O2 vibrational temperature is: 26537.4
Sanity check: max(|rhoCont - rhoFromSpecies|) = 0

ExecutionTime = 0.27 s  ClockTime = 1 s

Mean and max Courant Numbers = 0 0
Time = 6.2e-08

diagonal:  Solving for rhoCont, Initial residual = 0, Final residual = 0, No Iterations 0
diagonal:  Solving for rhoY_Y_N2, Initial residual = 0, Final residual = 0, No Iterations 0
diagonal:  Solving for rhoY_Y_O2, Initial residual = 0, Final residual = 0, No Iterations 0
diagonal:  Solving for rhoE, Initial residual = 0, Final residual = 0, No Iterations 0
diagonal:  Solving for rhoYEvib_Y_N2, Initial residual = 0, Final residual = 0, No Iterations 0
diagonal:  Solving for rhoYEvib_Y_O2, Initial residual = 0, Final residual = 0, No Iterations 0
After TTR update: 
Average translational-rotational temperature is: 5623.45
Average Y_N2 vibrational temperature is: 29731.5
Average Y_O2 vibrational temperature is: 26470.9
Sanity check: max(|rhoCont - rhoFromSpecies|) = 0

ExecutionTime = 0.27 s  ClockTime = 1 s

Mean and max Courant Numbers = 0 0
Time = 6.3e-08

diagonal:  Solving for rhoCont, Initial residual = 0, Final residual = 0, No Iterations 0
diagonal:  Solving for rhoY_Y_N2, Initial residual = 0, Final residual = 0, No Iterations 0
diagonal:  Solving for rhoY_Y_O2, Initial residual = 0, Final residual = 0, No Iterations 0
diagonal:  Solving for rhoE, Initial residual = 0, Final residual = 0, No Iterations 0
diagonal:  Solving for rhoYEvib_Y_N2, Initial residual = 0, Final residual = 0, No Iterations 0
diagonal:  Solving for rhoYEvib_Y_O2, Initial residual = 0, Final residual = 0, No Iterations 0
After TTR update: 
Average translational-rotational temperature is: 5637.29
Average Y_N2 vibrational temperature is: 29725.4
Average Y_O2 vibrational temperature is: 26404.2
Sanity check: max(|rhoCont - rhoFromSpecies|) = 0

ExecutionTime = 0.27 s  ClockTime = 1 s

Mean and max Courant Numbers = 0 0
Time = 6.4e-08

diagonal:  Solving for rhoCont, Initial residual = 0, Final residual = 0, No Iterations 0
diagonal:  Solving for rhoY_Y_N2, Initial residual = 0, Final residual = 0, No Iterations 0
diagonal:  Solving for rhoY_Y_O2, Initial residual = 0, Final residual = 0, No Iterations 0
diagonal:  Solving for rhoE, Initial residual = 0, Final residual = 0, No Iterations 0
diagonal:  Solving for rhoYEvib_Y_N2, Initial residual = 0, Final residual = 0, No Iterations 0
diagonal:  Solving for rhoYEvib_Y_O2, Initial residual = 0, Final residual = 0, No Iterations 0
After TTR update: 
Average translational-rotational temperature is: 5651.2
Average Y_N2 vibrational temperature is: 29719.1
Average Y_O2 vibrational temperature is: 26337.1
Sanity check: max(|rhoCont - rhoFromSpecies|) = 0

ExecutionTime = 0.28 s  ClockTime = 1 s

Mean and max Courant Numbers = 0 0
Time = 6.5e-08

diagonal:  Solving for rhoCont, Initial residual = 0, Final residual = 0, No Iterations 0
diagonal:  Solving for rhoY_Y_N2, Initial residual = 0, Final residual = 0, No Iterations 0
diagonal:  Solving for rhoY_Y_O2, Initial residual = 0, Final residual = 0, No Iterations 0
diagonal:  Solving for rhoE, Initial residual = 0, Final residual = 0, No Iterations 0
diagonal:  Solving for rhoYEvib_Y_N2, Initial residual = 0, Final residual = 0, No Iterations 0
diagonal:  Solving for rhoYEvib_Y_O2, Initial residual = 0, Final residual = 0, No Iterations 0
After TTR update: 
Average translational-rotational temperature is: 5665.18
Average Y_N2 vibrational temperature is: 29712.8
Average Y_O2 vibrational temperature is: 26269.7
Sanity check: max(|rhoCont - rhoFromSpecies|) = 0

ExecutionTime = 0.28 s  ClockTime = 1 s

Mean and max Courant Numbers = 0 0
Time = 6.6e-08

diagonal:  Solving for rhoCont, Initial residual = 0, Final residual = 0, No Iterations 0
diagonal:  Solving for rhoY_Y_N2, Initial residual = 0, Final residual = 0, No Iterations 0
diagonal:  Solving for rhoY_Y_O2, Initial residual = 0, Final residual = 0, No Iterations 0
diagonal:  Solving for rhoE, Initial residual = 0, Final residual = 0, No Iterations 0
diagonal:  Solving for rhoYEvib_Y_N2, Initial residual = 0, Final residual = 0, No Iterations 0
diagonal:  Solving for rhoYEvib_Y_O2, Initial residual = 0, Final residual = 0, No Iterations 0
After TTR update: 
Average translational-rotational temperature is: 5679.24
Average Y_N2 vibrational temperature is: 29706.5
Average Y_O2 vibrational temperature is: 26202
Sanity check: max(|rhoCont - rhoFromSpecies|) = 0

ExecutionTime = 0.28 s  ClockTime = 1 s

Mean and max Courant Numbers = 0 0
Time = 6.7e-08

diagonal:  Solving for rhoCont, Initial residual = 0, Final residual = 0, No Iterations 0
diagonal:  Solving for rhoY_Y_N2, Initial residual = 0, Final residual = 0, No Iterations 0
diagonal:  Solving for rhoY_Y_O2, Initial residual = 0, Final residual = 0, No Iterations 0
diagonal:  Solving for rhoE, Initial residual = 0, Final residual = 0, No Iterations 0
diagonal:  Solving for rhoYEvib_Y_N2, Initial residual = 0, Final residual = 0, No Iterations 0
diagonal:  Solving for rhoYEvib_Y_O2, Initial residual = 0, Final residual = 0, No Iterations 0
After TTR update: 
[...]
diagonal:  Solving for rhoY_Y_N2, Initial residual = 0, Final residual = 0, No Iterations 0
diagonal:  Solving for rhoY_Y_O2, Initial residual = 0, Final residual = 0, No Iterations 0
diagonal:  Solving for rhoE, Initial residual = 0, Final residual = 0, No Iterations 0
diagonal:  Solving for rhoYEvib_Y_N2, Initial residual = 0, Final residual = 0, No Iterations 0
diagonal:  Solving for rhoYEvib_Y_O2, Initial residual = 0, Final residual = 0, No Iterations 0
After TTR update: 
Average translational-rotational temperature is: 12058.2
Average Y_N2 vibrational temperature is: 12058.2
Average Y_O2 vibrational temperature is: 12058.2
Sanity check: max(|rhoCont - rhoFromSpecies|) = 0

ExecutionTime = 8.78 s  ClockTime = 9 s

Mean and max Courant Numbers = 0 0
Time = 1.979e-06

diagonal:  Solving for rhoCont, Initial residual = 0, Final residual = 0, No Iterations 0
diagonal:  Solving for rhoY_Y_N2, Initial residual = 0, Final residual = 0, No Iterations 0
diagonal:  Solving for rhoY_Y_O2, Initial residual = 0, Final residual = 0, No Iterations 0
diagonal:  Solving for rhoE, Initial residual = 0, Final residual = 0, No Iterations 0
diagonal:  Solving for rhoYEvib_Y_N2, Initial residual = 0, Final residual = 0, No Iterations 0
diagonal:  Solving for rhoYEvib_Y_O2, Initial residual = 0, Final residual = 0, No Iterations 0
After TTR update: 
Average translational-rotational temperature is: 12058.2
Average Y_N2 vibrational temperature is: 12058.2
Average Y_O2 vibrational temperature is: 12058.2
Sanity check: max(|rhoCont - rhoFromSpecies|) = 0

ExecutionTime = 8.78 s  ClockTime = 9 s

Mean and max Courant Numbers = 0 0
Time = 1.98e-06

diagonal:  Solving for rhoCont, Initial residual = 0, Final residual = 0, No Iterations 0
diagonal:  Solving for rhoY_Y_N2, Initial residual = 0, Final residual = 0, No Iterations 0
diagonal:  Solving for rhoY_Y_O2, Initial residual = 0, Final residual = 0, No Iterations 0
diagonal:  Solving for rhoE, Initial residual = 0, Final residual = 0, No Iterations 0
diagonal:  Solving for rhoYEvib_Y_N2, Initial residual = 0, Final residual = 0, No Iterations 0
diagonal:  Solving for rhoYEvib_Y_O2, Initial residual = 0, Final residual = 0, No Iterations 0
After TTR update: 
Average translational-rotational temperature is: 12058.2
Average Y_N2 vibrational temperature is: 12058.2
Average Y_O2 vibrational temperature is: 12058.2
Sanity check: max(|rhoCont - rhoFromSpecies|) = 0

ExecutionTime = 8.79 s  ClockTime = 9 s

Mean and max Courant Numbers = 0 0
Time = 1.981e-06

diagonal:  Solving for rhoCont, Initial residual = 0, Final residual = 0, No Iterations 0
diagonal:  Solving for rhoY_Y_N2, Initial residual = 0, Final residual = 0, No Iterations 0
diagonal:  Solving for rhoY_Y_O2, Initial residual = 0, Final residual = 0, No Iterations 0
diagonal:  Solving for rhoE, Initial residual = 0, Final residual = 0, No Iterations 0
diagonal:  Solving for rhoYEvib_Y_N2, Initial residual = 0, Final residual = 0, No Iterations 0
diagonal:  Solving for rhoYEvib_Y_O2, Initial residual = 0, Final residual = 0, No Iterations 0
After TTR update: 
Average translational-rotational temperature is: 12058.2
Average Y_N2 vibrational temperature is: 12058.2
Average Y_O2 vibrational temperature is: 12058.2
Sanity check: max(|rhoCont - rhoFromSpecies|) = 0

ExecutionTime = 8.79 s  ClockTime = 9 s

Mean and max Courant Numbers = 0 0
Time = 1.982e-06

diagonal:  Solving for rhoCont, Initial residual = 0, Final residual = 0, No Iterations 0
diagonal:  Solving for rhoY_Y_N2, Initial residual = 0, Final residual = 0, No Iterations 0
diagonal:  Solving for rhoY_Y_O2, Initial residual = 0, Final residual = 0, No Iterations 0
diagonal:  Solving for rhoE, Initial residual = 0, Final residual = 0, No Iterations 0
diagonal:  Solving for rhoYEvib_Y_N2, Initial residual = 0, Final residual = 0, No Iterations 0
diagonal:  Solving for rhoYEvib_Y_O2, Initial residual = 0, Final residual = 0, No Iterations 0
After TTR update: 
Average translational-rotational temperature is: 12058.2
Average Y_N2 vibrational temperature is: 12058.2
Average Y_O2 vibrational temperature is: 12058.2
Sanity check: max(|rhoCont - rhoFromSpecies|) = 0

ExecutionTime = 8.79 s  ClockTime = 9 s

Mean and max Courant Numbers = 0 0
Time = 1.983e-06

diagonal:  Solving for rhoCont, Initial residual = 0, Final residual = 0, No Iterations 0
diagonal:  Solving for rhoY_Y_N2, Initial residual = 0, Final residual = 0, No Iterations 0
diagonal:  Solving for rhoY_Y_O2, Initial residual = 0, Final residual = 0, No Iterations 0
diagonal:  Solving for rhoE, Initial residual = 0, Final residual = 0, No Iterations 0
diagonal:  Solving for rhoYEvib_Y_N2, Initial residual = 0, Final residual = 0, No Iterations 0
diagonal:  Solving for rhoYEvib_Y_O2, Initial residual = 0, Final residual = 0, No Iterations 0
After TTR update: 
Average translational-rotational temperature is: 12058.2
Average Y_N2 vibrational temperature is: 12058.2
Average Y_O2 vibrational temperature is: 12058.2
Sanity check: max(|rhoCont - rhoFromSpecies|) = 0

ExecutionTime = 8.8 s  ClockTime = 9 s

Mean and max Courant Numbers = 0 0
Time = 1.984e-06

diagonal:  Solving for rhoCont, Initial residual = 0, Final residual = 0, No Iterations 0
diagonal:  Solving for rhoY_Y_N2, Initial residual = 0, Final residual = 0, No Iterations 0
diagonal:  Solving for rhoY_Y_O2, Initial residual = 0, Final residual = 0, No Iterations 0
diagonal:  Solving for rhoE, Initial residual = 0, Final residual = 0, No Iterations 0
diagonal:  Solving for rhoYEvib_Y_N2, Initial residual = 0, Final residual = 0, No Iterations 0
diagonal:  Solving for rhoYEvib_Y_O2, Initial residual = 0, Final residual = 0, No Iterations 0
After TTR update: 
Average translational-rotational temperature is: 12058.2
Average Y_N2 vibrational temperature is: 12058.2
Average Y_O2 vibrational temperature is: 12058.2
Sanity check: max(|rhoCont - rhoFromSpecies|) = 0

ExecutionTime = 8.8 s  ClockTime = 9 s

Mean and max Courant Numbers = 0 0
Time = 1.985e-06

diagonal:  Solving for rhoCont, Initial residual = 0, Final residual = 0, No Iterations 0
diagonal:  Solving for rhoY_Y_N2, Initial residual = 0, Final residual = 0, No Iterations 0
diagonal:  Solving for rhoY_Y_O2, Initial residual = 0, Final residual = 0, No Iterations 0
diagonal:  Solving for rhoE, Initial residual = 0, Final residual = 0, No Iterations 0
diagonal:  Solving for rhoYEvib_Y_N2, Initial residual = 0, Final residual = 0, No Iterations 0
diagonal:  Solving for rhoYEvib_Y_O2, Initial residual = 0, Final residual = 0, No Iterations 0
After TTR update: 
Average translational-rotational temperature is: 12058.2
Average Y_N2 vibrational temperature is: 12058.2
Average Y_O2 vibrational temperature is: 12058.2
Sanity check: max(|rhoCont - rhoFromSpecies|) = 0

ExecutionTime = 8.81 s  ClockTime = 9 s

Mean and max Courant Numbers = 0 0
Time = 1.986e-06

diagonal:  Solving for rhoCont, Initial residual = 0, Final residual = 0, No Iterations 0
diagonal:  Solving for rhoY_Y_N2, Initial residual = 0, Final residual = 0, No Iterations 0
diagonal:  Solving for rhoY_Y_O2, Initial residual = 0, Final residual = 0, No Iterations 0
diagonal:  Solving for rhoE, Initial residual = 0, Final residual = 0, No Iterations 0
diagonal:  Solving for rhoYEvib_Y_N2, Initial residual = 0, Final residual = 0, No Iterations 0
diagonal:  Solving for rhoYEvib_Y_O2, Initial residual = 0, Final residual = 0, No Iterations 0
After TTR update: 
Average translational-rotational temperature is: 12058.2
Average Y_N2 vibrational temperature is: 12058.2
Average Y_O2 vibrational temperature is: 12058.2
Sanity check: max(|rhoCont - rhoFromSpecies|) = 0

ExecutionTime = 8.81 s  ClockTime = 9 s

Mean and max Courant Numbers = 0 0
Time = 1.987e-06

diagonal:  Solving for rhoCont, Initial residual = 0, Final residual = 0, No Iterations 0
diagonal:  Solving for rhoY_Y_N2, Initial residual = 0, Final residual = 0, No Iterations 0
diagonal:  Solving for rhoY_Y_O2, Initial residual = 0, Final residual = 0, No Iterations 0
diagonal:  Solving for rhoE, Initial residual = 0, Final residual = 0, No Iterations 0
diagonal:  Solving for rhoYEvib_Y_N2, Initial residual = 0, Final residual = 0, No Iterations 0
diagonal:  Solving for rhoYEvib_Y_O2, Initial residual = 0, Final residual = 0, No Iterations 0
After TTR update: 
Average translational-rotational temperature is: 12058.2
Average Y_N2 vibrational temperature is: 12058.2
Average Y_O2 vibrational temperature is: 12058.2
Sanity check: max(|rhoCont - rhoFromSpecies|) = 0

ExecutionTime = 8.81 s  ClockTime = 9 s

Mean and max Courant Numbers = 0 0
Time = 1.988e-06

diagonal:  Solving for rhoCont, Initial residual = 0, Final residual = 0, No Iterations 0
diagonal:  Solving for rhoY_Y_N2, Initial residual = 0, Final residual = 0, No Iterations 0
diagonal:  Solving for rhoY_Y_O2, Initial residual = 0, Final residual = 0, No Iterations 0
diagonal:  Solving for rhoE, Initial residual = 0, Final residual = 0, No Iterations 0
diagonal:  Solving for rhoYEvib_Y_N2, Initial residual = 0, Final residual = 0, No Iterations 0
diagonal:  Solving for rhoYEvib_Y_O2, Initial residual = 0, Final residual = 0, No Iterations 0
After TTR update: 
Average translational-rotational temperature is: 12058.2
Average Y_N2 vibrational temperature is: 12058.2
Average Y_O2 vibrational temperature is: 12058.2
Sanity check: max(|rhoCont - rhoFromSpecies|) = 0

ExecutionTime = 8.82 s  ClockTime = 9 s

Mean and max Courant Numbers = 0 0
Time = 1.989e-06

diagonal:  Solving for rhoCont, Initial residual = 0, Final residual = 0, No Iterations 0
diagonal:  Solving for rhoY_Y_N2, Initial residual = 0, Final residual = 0, No Iterations 0
diagonal:  Solving for rhoY_Y_O2, Initial residual = 0, Final residual = 0, No Iterations 0
diagonal:  Solving for rhoE, Initial residual = 0, Final residual = 0, No Iterations 0
diagonal:  Solving for rhoYEvib_Y_N2, Initial residual = 0, Final residual = 0, No Iterations 0
diagonal:  Solving for rhoYEvib_Y_O2, Initial residual = 0, Final residual = 0, No Iterations 0
After TTR update: 
Average translational-rotational temperature is: 12058.2
Average Y_N2 vibrational temperature is: 12058.2
Average Y_O2 vibrational temperature is: 12058.2
Sanity check: max(|rhoCont - rhoFromSpecies|) = 0

ExecutionTime = 8.82 s  ClockTime = 9 s

Mean and max Courant Numbers = 0 0
Time = 1.99e-06

diagonal:  Solving for rhoCont, Initial residual = 0, Final residual = 0, No Iterations 0
diagonal:  Solving for rhoY_Y_N2, Initial residual = 0, Final residual = 0, No Iterations 0
diagonal:  Solving for rhoY_Y_O2, Initial residual = 0, Final residual = 0, No Iterations 0
diagonal:  Solving for rhoE, Initial residual = 0, Final residual = 0, No Iterations 0
diagonal:  Solving for rhoYEvib_Y_N2, Initial residual = 0, Final residual = 0, No Iterations 0
diagonal:  Solving for rhoYEvib_Y_O2, Initial residual = 0, Final residual = 0, No Iterations 0
After TTR update: 
Average translational-rotational temperature is: 12058.2
Average Y_N2 vibrational temperature is: 12058.2
Average Y_O2 vibrational temperature is: 12058.2
Sanity check: max(|rhoCont - rhoFromSpecies|) = 0

ExecutionTime = 8.82 s  ClockTime = 9 s

Mean and max Courant Numbers = 0 0
Time = 1.991e-06

diagonal:  Solving for rhoCont, Initial residual = 0, Final residual = 0, No Iterations 0
diagonal:  Solving for rhoY_Y_N2, Initial residual = 0, Final residual = 0, No Iterations 0
diagonal:  Solving for rhoY_Y_O2, Initial residual = 0, Final residual = 0, No Iterations 0
diagonal:  Solving for rhoE, Initial residual = 0, Final residual = 0, No Iterations 0
diagonal:  Solving for rhoYEvib_Y_N2, Initial residual = 0, Final residual = 0, No Iterations 0
diagonal:  Solving for rhoYEvib_Y_O2, Initial residual = 0, Final residual = 0, No Iterations 0
After TTR update: 
Average translational-rotational temperature is: 12058.2
Average Y_N2 vibrational temperature is: 12058.2
Average Y_O2 vibrational temperature is: 12058.2
Sanity check: max(|rhoCont - rhoFromSpecies|) = 0

ExecutionTime = 8.83 s  ClockTime = 9 s

Mean and max Courant Numbers = 0 0
Time = 1.992e-06

diagonal:  Solving for rhoCont, Initial residual = 0, Final residual = 0, No Iterations 0
diagonal:  Solving for rhoY_Y_N2, Initial residual = 0, Final residual = 0, No Iterations 0
diagonal:  Solving for rhoY_Y_O2, Initial residual = 0, Final residual = 0, No Iterations 0
diagonal:  Solving for rhoE, Initial residual = 0, Final residual = 0, No Iterations 0
diagonal:  Solving for rhoYEvib_Y_N2, Initial residual = 0, Final residual = 0, No Iterations 0
diagonal:  Solving for rhoYEvib_Y_O2, Initial residual = 0, Final residual = 0, No Iterations 0
After TTR update: 
Average translational-rotational temperature is: 12058.2
Average Y_N2 vibrational temperature is: 12058.2
Average Y_O2 vibrational temperature is: 12058.2
Sanity check: max(|rhoCont - rhoFromSpecies|) = 0

ExecutionTime = 8.83 s  ClockTime = 9 s

Mean and max Courant Numbers = 0 0
Time = 1.993e-06

diagonal:  Solving for rhoCont, Initial residual = 0, Final residual = 0, No Iterations 0
diagonal:  Solving for rhoY_Y_N2, Initial residual = 0, Final residual = 0, No Iterations 0
diagonal:  Solving for rhoY_Y_O2, Initial residual = 0, Final residual = 0, No Iterations 0
diagonal:  Solving for rhoE, Initial residual = 0, Final residual = 0, No Iterations 0
diagonal:  Solving for rhoYEvib_Y_N2, Initial residual = 0, Final residual = 0, No Iterations 0
diagonal:  Solving for rhoYEvib_Y_O2, Initial residual = 0, Final residual = 0, No Iterations 0
After TTR update: 
Average translational-rotational temperature is: 12058.2
Average Y_N2 vibrational temperature is: 12058.2
Average Y_O2 vibrational temperature is: 12058.2
Sanity check: max(|rhoCont - rhoFromSpecies|) = 0

ExecutionTime = 8.85 s  ClockTime = 9 s

Mean and max Courant Numbers = 0 0
Time = 1.994e-06

diagonal:  Solving for rhoCont, Initial residual = 0, Final residual = 0, No Iterations 0
diagonal:  Solving for rhoY_Y_N2, Initial residual = 0, Final residual = 0, No Iterations 0
diagonal:  Solving for rhoY_Y_O2, Initial residual = 0, Final residual = 0, No Iterations 0
diagonal:  Solving for rhoE, Initial residual = 0, Final residual = 0, No Iterations 0
diagonal:  Solving for rhoYEvib_Y_N2, Initial residual = 0, Final residual = 0, No Iterations 0
diagonal:  Solving for rhoYEvib_Y_O2, Initial residual = 0, Final residual = 0, No Iterations 0
After TTR update: 
Average translational-rotational temperature is: 12058.2
Average Y_N2 vibrational temperature is: 12058.2
Average Y_O2 vibrational temperature is: 12058.2
Sanity check: max(|rhoCont - rhoFromSpecies|) = 0

ExecutionTime = 8.85 s  ClockTime = 9 s

Mean and max Courant Numbers = 0 0
Time = 1.995e-06

diagonal:  Solving for rhoCont, Initial residual = 0, Final residual = 0, No Iterations 0
diagonal:  Solving for rhoY_Y_N2, Initial residual = 0, Final residual = 0, No Iterations 0
diagonal:  Solving for rhoY_Y_O2, Initial residual = 0, Final residual = 0, No Iterations 0
diagonal:  Solving for rhoE, Initial residual = 0, Final residual = 0, No Iterations 0
diagonal:  Solving for rhoYEvib_Y_N2, Initial residual = 0, Final residual = 0, No Iterations 0
diagonal:  Solving for rhoYEvib_Y_O2, Initial residual = 0, Final residual = 0, No Iterations 0
After TTR update: 
Average translational-rotational temperature is: 12058.2
Average Y_N2 vibrational temperature is: 12058.2
Average Y_O2 vibrational temperature is: 12058.2
Sanity check: max(|rhoCont - rhoFromSpecies|) = 0

ExecutionTime = 8.85 s  ClockTime = 9 s

Mean and max Courant Numbers = 0 0
Time = 1.996e-06

diagonal:  Solving for rhoCont, Initial residual = 0, Final residual = 0, No Iterations 0
diagonal:  Solving for rhoY_Y_N2, Initial residual = 0, Final residual = 0, No Iterations 0
diagonal:  Solving for rhoY_Y_O2, Initial residual = 0, Final residual = 0, No Iterations 0
diagonal:  Solving for rhoE, Initial residual = 0, Final residual = 0, No Iterations 0
diagonal:  Solving for rhoYEvib_Y_N2, Initial residual = 0, Final residual = 0, No Iterations 0
diagonal:  Solving for rhoYEvib_Y_O2, Initial residual = 0, Final residual = 0, No Iterations 0
After TTR update: 
Average translational-rotational temperature is: 12058.2
Average Y_N2 vibrational temperature is: 12058.2
Average Y_O2 vibrational temperature is: 12058.2
Sanity check: max(|rhoCont - rhoFromSpecies|) = 0

ExecutionTime = 8.86 s  ClockTime = 9 s

Mean and max Courant Numbers = 0 0
Time = 1.997e-06

diagonal:  Solving for rhoCont, Initial residual = 0, Final residual = 0, No Iterations 0
diagonal:  Solving for rhoY_Y_N2, Initial residual = 0, Final residual = 0, No Iterations 0
diagonal:  Solving for rhoY_Y_O2, Initial residual = 0, Final residual = 0, No Iterations 0
diagonal:  Solving for rhoE, Initial residual = 0, Final residual = 0, No Iterations 0
diagonal:  Solving for rhoYEvib_Y_N2, Initial residual = 0, Final residual = 0, No Iterations 0
diagonal:  Solving for rhoYEvib_Y_O2, Initial residual = 0, Final residual = 0, No Iterations 0
After TTR update: 
Average translational-rotational temperature is: 12058.2
Average Y_N2 vibrational temperature is: 12058.2
Average Y_O2 vibrational temperature is: 12058.2
Sanity check: max(|rhoCont - rhoFromSpecies|) = 0

ExecutionTime = 8.86 s  ClockTime = 9 s

Mean and max Courant Numbers = 0 0
Time = 1.998e-06

diagonal:  Solving for rhoCont, Initial residual = 0, Final residual = 0, No Iterations 0
diagonal:  Solving for rhoY_Y_N2, Initial residual = 0, Final residual = 0, No Iterations 0
diagonal:  Solving for rhoY_Y_O2, Initial residual = 0, Final residual = 0, No Iterations 0
diagonal:  Solving for rhoE, Initial residual = 0, Final residual = 0, No Iterations 0
diagonal:  Solving for rhoYEvib_Y_N2, Initial residual = 0, Final residual = 0, No Iterations 0
diagonal:  Solving for rhoYEvib_Y_O2, Initial residual = 0, Final residual = 0, No Iterations 0
After TTR update: 
Average translational-rotational temperature is: 12058.2
Average Y_N2 vibrational temperature is: 12058.2
Average Y_O2 vibrational temperature is: 12058.2
Sanity check: max(|rhoCont - rhoFromSpecies|) = 0

ExecutionTime = 8.86 s  ClockTime = 9 s

Mean and max Courant Numbers = 0 0
Time = 1.999e-06

diagonal:  Solving for rhoCont, Initial residual = 0, Final residual = 0, No Iterations 0
diagonal:  Solving for rhoY_Y_N2, Initial residual = 0, Final residual = 0, No Iterations 0
diagonal:  Solving for rhoY_Y_O2, Initial residual = 0, Final residual = 0, No Iterations 0
diagonal:  Solving for rhoE, Initial residual = 0, Final residual = 0, No Iterations 0
diagonal:  Solving for rhoYEvib_Y_N2, Initial residual = 0, Final residual = 0, No Iterations 0
diagonal:  Solving for rhoYEvib_Y_O2, Initial residual = 0, Final residual = 0, No Iterations 0
After TTR update: 
Average translational-rotational temperature is: 12058.2
Average Y_N2 vibrational temperature is: 12058.2
Average Y_O2 vibrational temperature is: 12058.2
Sanity check: max(|rhoCont - rhoFromSpecies|) = 0

ExecutionTime = 8.87 s  ClockTime = 9 s

Mean and max Courant Numbers = 0 0
Time = 2e-06

diagonal:  Solving for rhoCont, Initial residual = 0, Final residual = 0, No Iterations 0
diagonal:  Solving for rhoY_Y_N2, Initial residual = 0, Final residual = 0, No Iterations 0
diagonal:  Solving for rhoY_Y_O2, Initial residual = 0, Final residual = 0, No Iterations 0
diagonal:  Solving for rhoE, Initial residual = 0, Final residual = 0, No Iterations 0
diagonal:  Solving for rhoYEvib_Y_N2, Initial residual = 0, Final residual = 0, No Iterations 0
diagonal:  Solving for rhoYEvib_Y_O2, Initial residual = 0, Final residual = 0, No Iterations 0
After TTR update: 
Average translational-rotational temperature is: 12058.2
Average Y_N2 vibrational temperature is: 12058.2
Average Y_O2 vibrational temperature is: 12058.2
Sanity check: max(|rhoCont - rhoFromSpecies|) = 0

ExecutionTime = 8.87 s  ClockTime = 9 s

End

