/*---------------------------------------------------------------------------*\
| =========                 |                                                 |
| \\      /  F ield         | OpenFOAM: The Open Source CFD Toolbox           |
|  \\    /   O peration     | Version:  2412                                  |
|   \\  /    A nd           | Website:  www.openfoam.com                      |
|    \\/     M anipulation  |                                                 |
\*---------------------------------------------------------------------------*/
Build  : 0bb0c1db74-20250528 OPENFOAM=2412 version=v2412
Arch   : "LSB;label=32;scalar=64"
Exec   : nexaFoam
Date   : Nov 20 2025
Time   : 09:25:06
Host   : FurkanLinux
PID    : 276869
I/O    : uncollated
Case   : /home/t12022124597/Desktop/codeProjects/masterThesisCode/nexaFoam/tutorials/compressible/nexaFoam/obliqueShock_multicompMix
nProcs : 1
trapFpe: Floating point exception trapping enabled (FOAM_SIGFPE).
fileModificationChecking : Monitoring run-time modified files using timeStampMaster (fileModificationSkew 5, maxFileModificationPolls 20)
allowSystemOperations : Allowing user-supplied system call operations

// * * * * * * * * * * * * * * * * * * * * * * * * * * * * * * * * * * * * * //
Create time

Create mesh for time = 0

Selecting thermodynamics package 
{
    type            heNe2TReactionThermo;
    mixture         multiComponent2TMixture;
    transport       blottnerEucken2T;
    thermo          janaf2T;
    equationOfState perfect2TGas;
    specie          specie2T;
    energy          sensibleCalculation2T;
}

Reading field U

Creating turbulence model

Selecting turbulence model type laminar
Selecting laminar stress model Stokes
fluxScheme: Kurganov

Starting time loop

Tau Millikan-White: 1.24597e-08
Tau Park: 2.4795e-05
Tau Millikan-White: 1.25492e-08
Tau Park: 2.4795e-05
Tau Millikan-White: 1.24597e-08
Tau Park: 2.4795e-05
Tau Millikan-White: 1.25492e-08
Tau Park: 2.4795e-05
Tau Millikan-White: 1.24597e-08
Tau Park: 2.4795e-05
Tau Millikan-White: 1.25492e-08
Tau Park: 2.4795e-05
Tau Millikan-White: 1.24597e-08
Tau Park: 2.4795e-05
Tau Millikan-White: 1.25492e-08
Tau Park: 2.4795e-05
Tau Millikan-White: 1.24597e-08
Tau Park: 2.4795e-05
Tau Millikan-White: 1.25492e-08
Tau Park: 2.4795e-05
Tau Millikan-White: 1.24597e-08
Tau Park: 2.4795e-05
Tau Millikan-White: 1.25492e-08
Tau Park: 2.4795e-05
Tau Millikan-White: 1.24597e-08
Tau Park: 2.4795e-05
Tau Millikan-White: 1.25492e-08
Tau Park: 2.4795e-05
Tau Millikan-White: 1.24597e-08
Tau Park: 2.4795e-05
Tau Millikan-White: 1.25492e-08
Tau Park: 2.4795e-05
Tau Millikan-White: 1.24597e-08
Tau Park: 2.4795e-05
Tau Millikan-White: 1.25492e-08
Tau Park: 2.4795e-05
Tau Millikan-White: 1.24597e-08
Tau Park: 2.4795e-05
Tau Millikan-White: 1.25492e-08
Tau Park: 2.4795e-05
Tau Millikan-White: 1.24597e-08
Tau Park: 2.4795e-05
Tau Millikan-White: 1.25492e-08
Tau Park: 2.4795e-05
Tau Millikan-White: 1.24597e-08
Tau Park: 2.4795e-05
Tau Millikan-White: 1.25492e-08
Tau Park: 2.4795e-05
Tau Millikan-White: 1.24597e-08
Tau Park: 2.4795e-05
Tau Millikan-White: 1.25492e-08
Tau Park: 2.4795e-05
Tau Millikan-White: 1.24597e-08
Tau Park: 2.4795e-05
Tau Millikan-White: 1.25492e-08
Tau Park: 2.4795e-05
Tau Millikan-White: 1.24597e-08
Tau Park: 2.4795e-05
Tau Millikan-White: 1.25492e-08
Tau Park: 2.4795e-05
Tau Millikan-White: 1.24597e-08
Tau Park: 2.4795e-05
Tau Millikan-White: 1.25492e-08
Tau Park: 2.4795e-05
Tau Millikan-White: 1.24597e-08
Tau Park: 2.4795e-05
Tau Millikan-White: 1.25492e-08
Tau Park: 2.4795e-05
Tau Millikan-White: 1.24597e-08
Tau Park: 2.4795e-05
Tau Millikan-White: 1.25492e-08
Tau Park: 2.4795e-05
Tau Millikan-White: 1.24597e-08
Tau Park: 2.4795e-05
Tau Millikan-White: 1.25492e-08
Tau Park: 2.4795e-05
Tau Millikan-White: 1.24597e-08
Tau Park: 2.4795e-05
Tau Millikan-White: 1.25492e-08
Tau Park: 2.4795e-05
Tau Millikan-White: 1.24597e-08
Tau Park: 2.4795e-05
Tau Millikan-White: 1.25492e-08
Tau Park: 2.4795e-05
Tau Millikan-White: 1.24597e-08
Tau Park: 2.4795e-05
Tau Millikan-White: 1.25492e-08
Tau Park: 2.4795e-05
Tau Millikan-White: 1.24597e-08
Tau Park: 2.4795e-05
Tau Millikan-White: 1.25492e-08
Tau Park: 2.4795e-05
Tau Millikan-White: 1.24597e-08
Tau Park: 2.4795e-05
Tau Millikan-White: 1.25492e-08
Tau Park: 2.4795e-05
Tau Millikan-White: 1.24597e-08
Tau Park: 2.4795e-05
Tau Millikan-White: 1.25492e-08
Tau Park: 2.4795e-05
Tau Millikan-White: 1.24597e-08
Tau Park: 2.4795e-05
Tau Millikan-White: 1.25492e-08
Tau Park: 2.4795e-05
Tau Millikan-White: 1.24597e-08
Tau Park: 2.4795e-05
Tau Millikan-White: 1.25492e-08
Tau Park: 2.4795e-05
Tau Millikan-White: 1.24597e-08
Tau Park: 2.4795e-05
Tau Millikan-White: 1.25492e-08
Tau Park: 2.4795e-05
Tau Millikan-White: 1.24597e-08
Tau Park: 2.4795e-05
Tau Millikan-White: 1.25492e-08
Tau Park: 2.4795e-05
Tau Millikan-White: 1.24597e-08
Tau Park: 2.4795e-05
Tau Millikan-White: 1.25492e-08
Tau Park: 2.4795e-05
Tau Millikan-White: 1.24597e-08
Tau Park: 2.4795e-05
Tau Millikan-White: 1.25492e-08
Tau Park: 2.4795e-05
Tau Millikan-White: 1.24597e-08
Tau Park: 2.4795e-05
Tau Millikan-White: 1.25492e-08
Tau Park: 2.4795e-05
Tau Millikan-White: 1.24597e-08
Tau Park: 2.4795e-05
Tau Millikan-White: 1.25492e-08
Tau Park: 2.4795e-05
Tau Millikan-White: 1.24597e-08
Tau Park: 2.4795e-05
Tau Millikan-White: 1.25492e-08
Tau Park: 2.4795e-05
Tau Millikan-White: 1.24597e-08
Tau Park: 2.4795e-05
Tau Millikan-White: 1.25492e-08
Tau Park: 2.4795e-05
Tau Millikan-White: 1.24597e-08
Tau Park: 2.4795e-05
Tau Millikan-White: 1.25492e-08
Tau Park: 2.4795e-05
Tau Millikan-White: 1.24597e-08
Tau Park: 2.4795e-05
Tau Millikan-White: 1.25492e-08
Tau Park: 2.4795e-05
Tau Millikan-White: 1.24597e-08
Tau Park: 2.4795e-05
Tau Millikan-White: 1.25492e-08
Tau Park: 2.4795e-05
Tau Millikan-White: 1.24597e-08
Tau Park: 2.4795e-05
Tau Millikan-White: 1.25492e-08
Tau Park: 2.4795e-05
Tau Millikan-White: 1.24597e-08
Tau Park: 2.4795e-05
Tau Millikan-White: 1.25492e-08
Tau Park: 2.4795e-05
Tau Millikan-White: 1.24597e-08
Tau Park: 2.4795e-05
Tau Millikan-White: 1.25492e-08
Tau Park: 2.4795e-05
Tau Millikan-White: 1.24597e-08
Tau Park: 2.4795e-05
Tau Millikan-White: 1.25492e-08
Tau Park: 2.4795e-05
Tau Millikan-White: 1.24597e-08
Tau Park: 2.4795e-05
Tau Millikan-White: 1.25492e-08
Tau Park: 2.4795e-05
Tau Millikan-White: 1.24597e-08
Tau Park: 2.4795e-05
Tau Millikan-White: 1.25492e-08
Tau Park: 2.4795e-05
Tau Millikan-White: 1.24597e-08
Tau Park: 2.4795e-05
Tau Millikan-White: 1.25492e-08
Tau Park: 2.4795e-05
Tau Millikan-White: 1.24597e-08
Tau Park: 2.4795e-05
Tau Millikan-White: 1.25492e-08
Tau Park: 2.4795e-05
Tau Millikan-White: 1.24597e-08
Tau Park: 2.4795e-05
Tau Millikan-White: 1.25492e-08
Tau Park: 2.4795e-05
Tau Millikan-White: 1.24597e-08
Tau Park: 2.4795e-05
Tau Millikan-White: 1.25492e-08
Tau Park: 2.4795e-05
Tau Millikan-White: 1.24597e-08
Tau Park: 2.4795e-05
Tau Millikan-White: 1.25492e-08
Tau Park: 2.4795e-05
Tau Millikan-White: 1.24597e-08
Tau Park: 2.4795e-05
Tau Millikan-White: 1.25492e-08
Tau Park: 2.4795e-05
Tau Millikan-White: 1.24597e-08
Tau Park: 2.4795e-05
Tau Millikan-White: 1.25492e-08
Tau Park: 2.4795e-05
Tau Millikan-White: 1.24597e-08
Tau Park: 2.4795e-05
Tau Millikan-White: 1.25492e-08
Tau Park: 2.4795e-05
Tau Millikan-White: 1.24597e-08
Tau Park: 2.4795e-05
Tau Millikan-White: 1.25492e-08
Tau Park: 2.4795e-05
Tau Millikan-White: 1.24597e-08
Tau Park: 2.4795e-05
Tau Millikan-White: 1.25492e-08
Tau Park: 2.4795e-05
Tau Millikan-White: 1.24597e-08
Tau Park: 2.4795e-05
Tau Millikan-White: 1.25492e-08
Tau Park: 2.4795e-05
Tau Millikan-White: 1.24597e-08
Tau Park: 2.4795e-05
Tau Millikan-White: 1.25492e-08
Tau Park: 2.4795e-05
Tau Millikan-White: 1.24597e-08
Tau Park: 2.4795e-05
Tau Millikan-White: 1.25492e-08
Tau Park: 2.4795e-05
Tau Millikan-White: 1.24597e-08
Tau Park: 2.4795e-05
Tau Millikan-White: 1.25492e-08
Tau Park: 2.4795e-05
Tau Millikan-White: 1.24597e-08
Tau Park: 2.4795e-05
Tau Millikan-White: 1.25492e-08
Tau Park: 2.4795e-05
Tau Millikan-White: 1.24597e-08
Tau Park: 2.4795e-05
Tau Millikan-White: 1.25492e-08
Tau Park: 2.4795e-05
Tau Millikan-White: 1.24597e-08
Tau Park: 2.4795e-05
Tau Millikan-White: 1.25492e-08
Tau Park: 2.4795e-05
Tau Millikan-White: 1.24597e-08
Tau Park: 2.4795e-05
Tau Millikan-White: 1.25492e-08
Tau Park: 2.4795e-05
Tau Millikan-White: 1.24597e-08
Tau Park: 2.4795e-05
Tau Millikan-White: 1.25492e-08
Tau Park: 2.4795e-05
Tau Millikan-White: 1.24597e-08
Tau Park: 2.4795e-05
Tau Millikan-White: 1.25492e-08
Tau Park: 2.4795e-05
Tau Millikan-White: 1.24597e-08
Tau Park: 2.4795e-05
Tau Millikan-White: 1.25492e-08
Tau Park: 2.4795e-05
Tau Millikan-White: 1.24597e-08
Tau Park: 2.4795e-05
Tau Millikan-White: 1.25492e-08
Tau Park: 2.4795e-05
Tau Millikan-White: 1.24597e-08
Tau Park: 2.4795e-05
Tau Millikan-White: 1.25492e-08
Tau Park: 2.4795e-05
Tau Millikan-White: 1.24597e-08
Tau Park: 2.4795e-05
Tau Millikan-White: 1.25492e-08
Tau Park: 2.4795e-05
Tau Millikan-White: 1.24597e-08
Tau Park: 2.4795e-05
Tau Millikan-White: 1.25492e-08
Tau Park: 2.4795e-05
Tau Millikan-White: 1.24597e-08
Tau Park: 2.4795e-05
Tau Millikan-White: 1.25492e-08
Tau Park: 2.4795e-05
Tau Millikan-White: 1.24597e-08
Tau Park: 2.4795e-05
Tau Millikan-White: 1.25492e-08
Tau Park: 2.4795e-05
Tau Millikan-White: 1.24597e-08
Tau Park: 2.4795e-05
Tau Millikan-White: 1.25492e-08
Tau Park: 2.4795e-05
Tau Millikan-White: 1.24597e-08
Tau Park: 2.4795e-05
Tau Millikan-White: 1.25492e-08
Tau Park: 2.4795e-05
Tau Millikan-White: 1.24597e-08
Tau Park: 2.4795e-05
Tau Millikan-White: 1.25492e-08
Tau Park: 2.4795e-05
Tau Millikan-White: 1.24597e-08
Tau Park: 2.4795e-05
Tau Millikan-White: 1.25492e-08
Tau Park: 2.4795e-05
Tau Millikan-White: 1.24597e-08
Tau Park: 2.4795e-05
Tau Millikan-White: 1.25492e-08
Tau Park: 2.4795e-05
Tau Millikan-White: 1.24597e-08
Tau Park: 2.4795e-05
Tau Millikan-White: 1.25492e-08
Tau Park: 2.4795e-05
Tau Millikan-White: 1.24597e-08
Tau Park: 2.4795e-05
Tau Millikan-White: 1.25492e-08
Tau Park: 2.4795e-05
Tau Millikan-White: 1.24597e-08
Tau Park: 2.4795e-05
Tau Millikan-White: 1.25492e-08
Tau Park: 2.4795e-05
Tau Millikan-White: 1.24597e-08
Tau Park: 2.4795e-05
Tau Millikan-White: 1.25492e-08
Tau Park: 2.4795e-05
Tau Millikan-White: 1.24597e-08
Tau Park: 2.4795e-05
Tau Millikan-White: 1.25492e-08
Tau Park: 2.4795e-05
Tau Millikan-White: 1.24597e-08
Tau Park: 2.4795e-05
Tau Millikan-White: 1.25492e-08
Tau Park: 2.4795e-05
Tau Millikan-White: 1.24597e-08
Tau Park: 2.4795e-05
Tau Millikan-White: 1.25492e-08
Tau Park: 2.4795e-05
Tau Millikan-White: 1.24597e-08
Tau Park: 2.4795e-05
Tau Millikan-White: 1.25492e-08
Tau Park: 2.4795e-05
Tau Millikan-White: 1.24597e-08
Tau Park: 2.4795e-05
Tau Millikan-White: 1.25492e-08
Tau Park: 2.4795e-05
Tau Millikan-White: 1.24597e-08
Tau Park: 2.4795e-05
Tau Millikan-White: 1.25492e-08
Tau Park: 2.4795e-05
Tau Millikan-White: 1.24597e-08
Tau Park: 2.4795e-05
Tau Millikan-White: 1.25492e-08
Tau Park: 2.4795e-05
Tau Millikan-White: 1.24597e-08
Tau Park: 2.4795e-05
Tau Millikan-White: 1.25492e-08
Tau Park: 2.4795e-05
Tau Millikan-White: 1.24597e-08
Tau Park: 2.4795e-05
Tau Millikan-White: 1.25492e-08
Tau Park: 2.4795e-05
Tau Millikan-White: 1.24597e-08
Tau Park: 2.4795e-05
Tau Millikan-White: 1.25492e-08
Tau Park: 2.4795e-05
Tau Millikan-White: 1.24597e-08
Tau Park: 2.4795e-05
Tau Millikan-White: 1.25492e-08
Tau Park: 2.4795e-05
Tau Millikan-White: 1.24597e-08
Tau Park: 2.4795e-05
Tau Millikan-White: 1.25492e-08
Tau Park: 2.4795e-05
Tau Millikan-White: 1.24597e-08
Tau Park: 2.4795e-05
Tau Millikan-White: 1.25492e-08
Tau Park: 2.4795e-05
Tau Millikan-White: 1.24597e-08
Tau Park: 2.4795e-05
Tau Millikan-White: 1.25492e-08
Tau Park: 2.4795e-05
Tau Millikan-White: 1.24597e-08
Tau Park: 2.4795e-05
Tau Millikan-White: 1.25492e-08
Tau Park: 2.4795e-05
Tau Millikan-White: 1.24597e-08
Tau Park: 2.4795e-05
Tau Millikan-White: 1.25492e-08
Tau Park: 2.4795e-05
Tau Millikan-White: 1.24597e-08
Tau Park: 2.4795e-05
Tau Millikan-White: 1.25492e-08
Tau Park: 2.4795e-05
Tau Millikan-White: 1.24597e-08
Tau Park: 2.4795e-05
Tau Millikan-White: 1.25492e-08
Tau Park: 2.4795e-05
Tau Millikan-White: 1.24597e-08
Tau Park: 2.4795e-05
Tau Millikan-White: 1.25492e-08
Tau Park: 2.4795e-05
Tau Millikan-White: 1.24597e-08
Tau Park: 2.4795e-05
Tau Millikan-White: 1.25492e-08
Tau Park: 2.4795e-05
Tau Millikan-White: 1.24597e-08
Tau Park: 2.4795e-05
Tau Millikan-White: 1.25492e-08
Tau Park: 2.4795e-05
Tau Millikan-White: 1.24597e-08
Tau Park: 2.4795e-05
Tau Millikan-White: 1.25492e-08
Tau Park: 2.4795e-05
Tau Millikan-White: 1.24597e-08
Tau Park: 2.4795e-05
Tau Millikan-White: 1.25492e-08
Tau Park: 2.4795e-05
Tau Millikan-White: 1.24597e-08
Tau Park: 2.4795e-05
Tau Millikan-White: 1.25492e-08
Tau Park: 2.4795e-05
Tau Millikan-White: 1.24597e-08
Tau Park: 2.4795e-05
Tau Millikan-White: 1.25492e-08
Tau Park: 2.4795e-05
Tau Millikan-White: 1.24597e-08
Tau Park: 2.4795e-05
Tau Millikan-White: 1.25492e-08
Tau Park: 2.4795e-05
Tau Millikan-White: 1.24597e-08
Tau Park: 2.4795e-05
Tau Millikan-White: 1.25492e-08
Tau Park: 2.4795e-05
Tau Millikan-White: 1.24597e-08
Tau Park: 2.4795e-05
Tau Millikan-White: 1.25492e-08
Tau Park: 2.4795e-05
Tau Millikan-White: 1.24597e-08
Tau Park: 2.4795e-05
Tau Millikan-White: 1.25492e-08
Tau Park: 2.4795e-05
Tau Millikan-White: 1.24597e-08
Tau Park: 2.4795e-05
Tau Millikan-White: 1.25492e-08
Tau Park: 2.4795e-05
Tau Millikan-White: 1.24597e-08
Tau Park: 2.4795e-05
Tau Millikan-White: 1.25492e-08
Tau Park: 2.4795e-05
Tau Millikan-White: 1.24597e-08
Tau Park: 2.4795e-05
Tau Millikan-White: 1.25492e-08
Tau Park: 2.4795e-05
Tau Millikan-White: 1.24597e-08
Tau Park: 2.4795e-05
Tau Millikan-White: 1.25492e-08
Tau Park: 2.4795e-05
Tau Millikan-White: 1.24597e-08
Tau Park: 2.4795e-05
Tau Millikan-White: 1.25492e-08
Tau Park: 2.4795e-05
Tau Millikan-White: 1.24597e-08
Tau Park: 2.4795e-05
Tau Millikan-White: 1.25492e-08
Tau Park: 2.4795e-05
Tau Millikan-White: 1.24597e-08
Tau Park: 2.4795e-05
Tau Millikan-White: 1.25492e-08
Tau Park: 2.4795e-05
Tau Millikan-White: 1.24597e-08
Tau Park: 2.4795e-05
Tau Millikan-White: 1.25492e-08
Tau Park: 2.4795e-05
Tau Millikan-White: 1.24597e-08
Tau Park: 2.4795e-05
Tau Millikan-White: 1.25492e-08
Tau Park: 2.4795e-05
Tau Millikan-White: 1.24597e-08
Tau Park: 2.4795e-05
Tau Millikan-White: 1.25492e-08
Tau Park: 2.4795e-05
Tau Millikan-White: 1.24597e-08
Tau Park: 2.4795e-05
Tau Millikan-White: 1.25492e-08
Tau Park: 2.4795e-05
Tau Millikan-White: 1.24597e-08
Tau Park: 2.4795e-05
Tau Millikan-White: 1.25492e-08
Tau Park: 2.4795e-05
Tau Millikan-White: 1.24597e-08
Tau Park: 2.4795e-05
Tau Millikan-White: 1.25492e-08
Tau Park: 2.4795e-05
Tau Millikan-White: 1.24597e-08
Tau Park: 2.4795e-05
Tau Millikan-White: 1.25492e-08
Tau Park: 2.4795e-05
Tau Millikan-White: 1.24597e-08
Tau Park: 2.4795e-05
Tau Millikan-White: 1.25492e-08
Tau Park: 2.4795e-05
Tau Millikan-White: 1.24597e-08
Tau Park: 2.4795e-05
Tau Millikan-White: 1.25492e-08
Tau Park: 2.4795e-05
Tau Millikan-White: 1.24597e-08
Tau Park: 2.4795e-05
Tau Millikan-White: 1.25492e-08
Tau Park: 2.4795e-05
Tau Millikan-White: 1.24597e-08
Tau Park: 2.4795e-05
Tau Millikan-White: 1.25492e-08
Tau Park: 2.4795e-05
Tau Millikan-White: 1.24597e-08
Tau Park: 2.4795e-05
Tau Millikan-White: 1.25492e-08
Tau Park: 2.4795e-05
Tau Millikan-White: 1.24597e-08
Tau Park: 2.4795e-05
Tau Millikan-White: 1.25492e-08
Tau Park: 2.4795e-05
Tau Millikan-White: 1.24597e-08
Tau Park: 2.4795e-05
Tau Millikan-White: 1.25492e-08
Tau Park: 2.4795e-05
Tau Millikan-White: 1.24597e-08
Tau Park: 2.4795e-05
Tau Millikan-White: 1.25492e-08
Tau Park: 2.4795e-05
Tau Millikan-White: 1.24597e-08
Tau Park: 2.4795e-05
Tau Millikan-White: 1.25492e-08
Tau Park: 2.4795e-05
Tau Millikan-White: 1.24597e-08
Tau Park: 2.4795e-05
Tau Millikan-White: 1.25492e-08
Tau Park: 2.4795e-05
Tau Millikan-White: 1.24597e-08
Tau Park: 2.4795e-05
Tau Millikan-White: 1.25492e-08
Tau Park: 2.4795e-05
Tau Millikan-White: 1.24597e-08
Tau Park: 2.4795e-05
Tau Millikan-White: 1.25492e-08
Tau Park: 2.4795e-05
Tau Millikan-White: 1.24597e-08
Tau Park: 2.4795e-05
Tau Millikan-White: 1.25492e-08
Tau Park: 2.4795e-05
Tau Millikan-White: 1.24597e-08
Tau Park: 2.4795e-05
Tau Millikan-White: 1.25492e-08
Tau Park: 2.4795e-05
Tau Millikan-White: 1.24597e-08
Tau Park: 2.4795e-05
Tau Millikan-White: 1.25492e-08
Tau Park: 2.4795e-05
Tau Millikan-White: 1.24597e-08
Tau Park: 2.4795e-05
Tau Millikan-White: 1.25492e-08
Tau Park: 2.4795e-05
Tau Millikan-White: 1.24597e-08
Tau Park: 2.4795e-05
Tau Millikan-White: 1.25492e-08
Tau Park: 2.4795e-05
Tau Millikan-White: 1.24597e-08
Tau Park: 2.4795e-05
Tau Millikan-White: 1.25492e-08
Tau Park: 2.4795e-05
Tau Millikan-White: 1.24597e-08
Tau Park: 2.4795e-05
Tau Millikan-White: 1.25492e-08
Tau Park: 2.4795e-05
Tau Millikan-White: 1.24597e-08
Tau Park: 2.4795e-05
Tau Millikan-White: 1.25492e-08
Tau Park: 2.4795e-05
Tau Millikan-White: 1.24597e-08
Tau Park: 2.4795e-05
Tau Millikan-White: 1.25492e-08
Tau Park: 2.4795e-05
Tau Millikan-White: 1.24597e-08
Tau Park: 2.4795e-05
Tau Millikan-White: 1.25492e-08
Tau Park: 2.4795e-05
Tau Millikan-White: 1.24597e-08
Tau Park: 2.4795e-05
Tau Millikan-White: 1.25492e-08
Tau Park: 2.4795e-05
Tau Millikan-White: 1.24597e-08
Tau Park: 2.4795e-05
Tau Millikan-White: 1.25492e-08
Tau Park: 2.4795e-05
Tau Millikan-White: 1.24597e-08
Tau Park: 2.4795e-05
Tau Millikan-White: 1.25492e-08
Tau Park: 2.4795e-05
Tau Millikan-White: 1.24597e-08
Tau Park: 2.4795e-05
Tau Millikan-White: 1.25492e-08
Tau Park: 2.4795e-05
Tau Millikan-White: 1.24597e-08
Tau Park: 2.4795e-05
Tau Millikan-White: 1.25492e-08
Tau Park: 2.4795e-05
Tau Millikan-White: 1.24597e-08
Tau Park: 2.4795e-05
Tau Millikan-White: 1.25492e-08
Tau Park: 2.4795e-05
Tau Millikan-White: 1.24597e-08
Tau Park: 2.4795e-05
Tau Millikan-White: 1.25492e-08
Tau Park: 2.4795e-05
Tau Millikan-White: 1.24597e-08
Tau Park: 2.4795e-05
Tau Millikan-White: 1.25492e-08
Tau Park: 2.4795e-05
Tau Millikan-White: 1.24597e-08
Tau Park: 2.4795e-05
Tau Millikan-White: 1.25492e-08
Tau Park: 2.4795e-05
Tau Millikan-White: 1.24597e-08
Tau Park: 2.4795e-05
Tau Millikan-White: 1.25492e-08
Tau Park: 2.4795e-05
Tau Millikan-White: 1.24597e-08
Tau Park: 2.4795e-05
Tau Millikan-White: 1.25492e-08
Tau Park: 2.4795e-05
Tau Millikan-White: 1.24597e-08
Tau Park: 2.4795e-05
Tau Millikan-White: 1.25492e-08
Tau Park: 2.4795e-05
Tau Millikan-White: 1.24597e-08
Tau Park: 2.4795e-05
Tau Millikan-White: 1.25492e-08
Tau Park: 2.4795e-05
Tau Millikan-White: 1.24597e-08
Tau Park: 2.4795e-05
Tau Millikan-White: 1.25492e-08
Tau Park: 2.4795e-05
Tau Millikan-White: 1.24597e-08
Tau Park: 2.4795e-05
Tau Millikan-White: 1.25492e-08
Tau Park: 2.4795e-05
Tau Millikan-White: 1.24597e-08
Tau Park: 2.4795e-05
Tau Millikan-White: 1.25492e-08
Tau Park: 2.4795e-05
Tau Millikan-White: 1.24597e-08
Tau Park: 2.4795e-05
Tau Millikan-White: 1.25492e-08
Tau Park: 2.4795e-05
Tau Millikan-White: 1.24597e-08
Tau Park: 2.4795e-05
Tau Millikan-White: 1.25492e-08
Tau Park: 2.4795e-05
Tau Millikan-White: 1.24597e-08
Tau Park: 2.4795e-05
Tau Millikan-White: 1.25492e-08
Tau Park: 2.4795e-05
Tau Millikan-White: 1.24597e-08
Tau Park: 2.4795e-05
Tau Millikan-White: 1.25492e-08
Tau Park: 2.4795e-05
Tau Millikan-White: 1.24597e-08
Tau Park: 2.4795e-05
Tau Millikan-White: 1.25492e-08
Tau Park: 2.4795e-05
Tau Millikan-White: 1.24597e-08
Tau Park: 2.4795e-05
Tau Millikan-White: 1.25492e-08
Tau Park: 2.4795e-05
Tau Millikan-White: 1.24597e-08
Tau Park: 2.4795e-05
Tau Millikan-White: 1.25492e-08
Tau Park: 2.4795e-05
Tau Millikan-White: 1.24597e-08
Tau Park: 2.4795e-05
Tau Millikan-White: 1.25492e-08
Tau Park: 2.4795e-05
Tau Millikan-White: 1.24597e-08
Tau Park: 2.4795e-05
Tau Millikan-White: 1.25492e-08
Tau Park: 2.4795e-05
Tau Millikan-White: 1.24597e-08
Tau Park: 2.4795e-05
Tau Millikan-White: 1.25492e-08
Tau Park: 2.4795e-05
Tau Millikan-White: 1.24597e-08
Tau Park: 2.4795e-05
Tau Millikan-White: 1.25492e-08
Tau Park: 2.4795e-05
Tau Millikan-White: 1.24597e-08
Tau Park: 2.4795e-05
Tau Millikan-White: 1.25492e-08
Tau Park: 2.4795e-05
Tau Millikan-White: 1.24597e-08
Tau Park: 2.4795e-05
Tau Millikan-White: 1.25492e-08
Tau Park: 2.4795e-05
Tau Millikan-White: 1.24597e-08
Tau Park: 2.4795e-05
Tau Millikan-White: 1.25492e-08
Tau Park: 2.4795e-05
Tau Millikan-White: 1.24597e-08
Tau Park: 2.4795e-05
Tau Millikan-White: 1.25492e-08
Tau Park: 2.4795e-05
Tau Millikan-White: 1.24597e-08
Tau Park: 2.4795e-05
Tau Millikan-White: 1.25492e-08
Tau Park: 2.4795e-05
Tau Millikan-White: 1.24597e-08
Tau Park: 2.4795e-05
Tau Millikan-White: 1.25492e-08
Tau Park: 2.4795e-05
Tau Millikan-White: 1.24597e-08
Tau Park: 2.4795e-05
Tau Millikan-White: 1.25492e-08
Tau Park: 2.4795e-05
Tau Millikan-White: 1.24597e-08
Tau Park: 2.4795e-05
Tau Millikan-White: 1.25492e-08
Tau Park: 2.4795e-05
Tau Millikan-White: 1.24597e-08
Tau Park: 2.4795e-05
Tau Millikan-White: 1.25492e-08
Tau Park: 2.4795e-05
Tau Millikan-White: 1.24597e-08
Tau Park: 2.4795e-05
Tau Millikan-White: 1.25492e-08
Tau Park: 2.4795e-05
Tau Millikan-White: 1.24597e-08
Tau Park: 2.4795e-05
Tau Millikan-White: 1.25492e-08
Tau Park: 2.4795e-05
Tau Millikan-White: 1.24597e-08
Tau Park: 2.4795e-05
Tau Millikan-White: 1.25492e-08
Tau Park: 2.4795e-05
Tau Millikan-White: 1.24597e-08
Tau Park: 2.4795e-05
Tau Millikan-White: 1.25492e-08
Tau Park: 2.4795e-05
Tau Millikan-White: 1.24597e-08
Tau Park: 2.4795e-05
Tau Millikan-White: 1.25492e-08
Tau Park: 2.4795e-05
Tau Millikan-White: 1.24597e-08
Tau Park: 2.4795e-05
Tau Millikan-White: 1.25492e-08
Tau Park: 2.4795e-05
Tau Millikan-White: 1.24597e-08
Tau Park: 2.4795e-05
Tau Millikan-White: 1.25492e-08
Tau Park: 2.4795e-05
Tau Millikan-White: 1.24597e-08
Tau Park: 2.4795e-05
Tau Millikan-White: 1.25492e-08
Tau Park: 2.4795e-05
Tau Millikan-White: 1.24597e-08
Tau Park: 2.4795e-05
Tau Millikan-White: 1.25492e-08
Tau Park: 2.4795e-05
Tau Millikan-White: 1.24597e-08
Tau Park: 2.4795e-05
Tau Millikan-White: 1.25492e-08
Tau Park: 2.4795e-05
Tau Millikan-White: 1.24597e-08
Tau Park: 2.4795e-05
Tau Millikan-White: 1.25492e-08
Tau Park: 2.4795e-05
Tau Millikan-White: 1.24597e-08
Tau Park: 2.4795e-05
Tau Millikan-White: 1.25492e-08
Tau Park: 2.4795e-05
Tau Millikan-White: 1.24597e-08
Tau Park: 2.4795e-05
Tau Millikan-White: 1.25492e-08
Tau Park: 2.4795e-05
Tau Millikan-White: 1.24597e-08
Tau Park: 2.4795e-05
Tau Millikan-White: 1.25492e-08
Tau Park: 2.4795e-05
Tau Millikan-White: 1.24597e-08
Tau Park: 2.4795e-05
Tau Millikan-White: 1.25492e-08
Tau Park: 2.4795e-05
Tau Millikan-White: 1.24597e-08
Tau Park: 2.4795e-05
Tau Millikan-White: 1.25492e-08
Tau Park: 2.4795e-05
Tau Millikan-White: 1.24597e-08
Tau Park: 2.4795e-05
Tau Millikan-White: 1.25492e-08
Tau Park: 2.4795e-05
Tau Millikan-White: 1.24597e-08
Tau Park: 2.4795e-05
Tau Millikan-White: 1.25492e-08
Tau Park: 2.4795e-05
Tau Millikan-White: 1.24597e-08
Tau Park: 2.4795e-05
Tau Millikan-White: 1.25492e-08
Tau Park: 2.4795e-05
Tau Millikan-White: 1.24597e-08
Tau Park: 2.4795e-05
Tau Millikan-White: 1.25492e-08
Tau Park: 2.4795e-05
Tau Millikan-White: 1.24597e-08
Tau Park: 2.4795e-05
Tau Millikan-White: 1.25492e-08
Tau Park: 2.4795e-05
Tau Millikan-White: 1.24597e-08
Tau Park: 2.4795e-05
Tau Millikan-White: 1.25492e-08
Tau Park: 2.4795e-05
Tau Millikan-White: 1.24597e-08
Tau Park: 2.4795e-05
Tau Millikan-White: 1.25492e-08
Tau Park: 2.4795e-05
Tau Millikan-White: 1.24597e-08
Tau Park: 2.4795e-05
Tau Millikan-White: 1.25492e-08
Tau Park: 2.4795e-05
Tau Millikan-White: 1.24597e-08
Tau Park: 2.4795e-05
Tau Millikan-White: 1.25492e-08
Tau Park: 2.4795e-05
Tau Millikan-White: 1.24597e-08
Tau Park: 2.4795e-05
Tau Millikan-White: 1.25492e-08
Tau Park: 2.4795e-05
Tau Millikan-White: 1.24597e-08
Tau Park: 2.4795e-05
Tau Millikan-White: 1.25492e-08
Tau Park: 2.4795e-05
Tau Millikan-White: 1.24597e-08
Tau Park: 2.4795e-05
Tau Millikan-White: 1.25492e-08
Tau Park: 2.4795e-05
Tau Millikan-White: 1.24597e-08
Tau Park: 2.4795e-05
Tau Millikan-White: 1.25492e-08
Tau Park: 2.4795e-05
Tau Millikan-White: 1.24597e-08
Tau Park: 2.4795e-05
Tau Millikan-White: 1.25492e-08
Tau Park: 2.4795e-05
Tau Millikan-White: 1.24597e-08
Tau Park: 2.4795e-05
Tau Millikan-White: 1.25492e-08
Tau Park: 2.4795e-05
Tau Millikan-White: 1.24597e-08
Tau Park: 2.4795e-05
Tau Millikan-White: 1.25492e-08
Tau Park: 2.4795e-05
Tau Millikan-White: 1.24597e-08
Tau Park: 2.4795e-05
Tau Millikan-White: 1.25492e-08
Tau Park: 2.4795e-05
Tau Millikan-White: 1.24597e-08
Tau Park: 2.4795e-05
Tau Millikan-White: 1.25492e-08
Tau Park: 2.4795e-05
Tau Millikan-White: 1.24597e-08
Tau Park: 2.4795e-05
Tau Millikan-White: 1.25492e-08
Tau Park: 2.4795e-05
Tau Millikan-White: 1.24597e-08
Tau Park: 2.4795e-05
Tau Millikan-White: 1.25492e-08
Tau Park: 2.4795e-05
Tau Millikan-White: 1.24597e-08
Tau Park: 2.4795e-05
Tau Millikan-White: 1.25492e-08
Tau Park: 2.4795e-05
Tau Millikan-White: 1.24597e-08
Tau Park: 2.4795e-05
Tau Millikan-White: 1.25492e-08
Tau Park: 2.4795e-05
Tau Millikan-White: 1.24597e-08
Tau Park: 2.4795e-05
Tau Millikan-White: 1.25492e-08
Tau Park: 2.4795e-05
Tau Millikan-White: 1.24597e-08
Tau Park: 2.4795e-05
Tau Millikan-White: 1.25492e-08
Tau Park: 2.4795e-05
Tau Millikan-White: 1.24597e-08
Tau Park: 2.4795e-05
Tau Millikan-White: 1.25492e-08
Tau Park: 2.4795e-05
Tau Millikan-White: 1.24597e-08
Tau Park: 2.4795e-05
Tau Millikan-White: 1.25492e-08
Tau Park: 2.4795e-05
Tau Millikan-White: 1.24597e-08
Tau Park: 2.4795e-05
Tau Millikan-White: 1.25492e-08
Tau Park: 2.4795e-05
Tau Millikan-White: 1.24597e-08
Tau Park: 2.4795e-05
Tau Millikan-White: 1.25492e-08
Tau Park: 2.4795e-05
Tau Millikan-White: 1.24597e-08
Tau Park: 2.4795e-05
Tau Millikan-White: 1.25492e-08
Tau Park: 2.4795e-05
Tau Millikan-White: 1.24597e-08
Tau Park: 2.4795e-05
Tau Millikan-White: 1.25492e-08
Tau Park: 2.4795e-05
Tau Millikan-White: 1.24597e-08
Tau Park: 2.4795e-05
Tau Millikan-White: 1.25492e-08
Tau Park: 2.4795e-05
Tau Millikan-White: 1.24597e-08
Tau Park: 2.4795e-05
Tau Millikan-White: 1.25492e-08
Tau Park: 2.4795e-05
Tau Millikan-White: 1.24597e-08
Tau Park: 2.4795e-05
Tau Millikan-White: 1.25492e-08
Tau Park: 2.4795e-05
Tau Millikan-White: 1.24597e-08
Tau Park: 2.4795e-05
Tau Millikan-White: 1.25492e-08
Tau Park: 2.4795e-05
Tau Millikan-White: 1.24597e-08
Tau Park: 2.4795e-05
Tau Millikan-White: 1.25492e-08
Tau Park: 2.4795e-05
Tau Millikan-White: 1.24597e-08
Tau Park: 2.4795e-05
Tau Millikan-White: 1.25492e-08
Tau Park: 2.4795e-05
Tau Millikan-White: 1.24597e-08
Tau Park: 2.4795e-05
Tau Millikan-White: 1.25492e-08
Tau Park: 2.4795e-05
Tau Millikan-White: 1.24597e-08
Tau Park: 2.4795e-05
Tau Millikan-White: 1.25492e-08
Tau Park: 2.4795e-05
Tau Millikan-White: 1.24597e-08
Tau Park: 2.4795e-05
Tau Millikan-White: 1.25492e-08
Tau Park: 2.4795e-05
Tau Millikan-White: 1.24597e-08
Tau Park: 2.4795e-05
Tau Millikan-White: 1.25492e-08
Tau Park: 2.4795e-05
Tau Millikan-White: 1.24597e-08
Tau Park: 2.4795e-05
Tau Millikan-White: 1.25492e-08
Tau Park: 2.4795e-05
Tau Millikan-White: 1.24597e-08
Tau Park: 2.4795e-05
Tau Millikan-White: 1.25492e-08
Tau Park: 2.4795e-05
Tau Millikan-White: 1.24597e-08
Tau Park: 2.4795e-05
Tau Millikan-White: 1.25492e-08
Tau Park: 2.4795e-05
Tau Millikan-White: 1.24597e-08
Tau Park: 2.4795e-05
Tau Millikan-White: 1.25492e-08
Tau Park: 2.4795e-05
Tau Millikan-White: 1.24597e-08
Tau Park: 2.4795e-05
Tau Millikan-White: 1.25492e-08
Tau Park: 2.4795e-05
Tau Millikan-White: 1.24597e-08
Tau Park: 2.4795e-05
Tau Millikan-White: 1.25492e-08
Tau Park: 2.4795e-05
Tau Millikan-White: 1.24597e-08
Tau Park: 2.4795e-05
Tau Millikan-White: 1.25492e-08
Tau Park: 2.4795e-05
Tau Millikan-White: 1.24597e-08
Tau Park: 2.4795e-05
Tau Millikan-White: 1.25492e-08
Tau Park: 2.4795e-05
Tau Millikan-White: 1.24597e-08
Tau Park: 2.4795e-05
Tau Millikan-White: 1.25492e-08
Tau Park: 2.4795e-05
Tau Millikan-White: 1.24597e-08
Tau Park: 2.4795e-05
Tau Millikan-White: 1.25492e-08
Tau Park: 2.4795e-05
Tau Millikan-White: 1.24597e-08
Tau Park: 2.4795e-05
Tau Millikan-White: 1.25492e-08
Tau Park: 2.4795e-05
Tau Millikan-White: 1.24597e-08
Tau Park: 2.4795e-05
Tau Millikan-White: 1.25492e-08
Tau Park: 2.4795e-05
Tau Millikan-White: 1.24597e-08
Tau Park: 2.4795e-05
Tau Millikan-White: 1.25492e-08
Tau Park: 2.4795e-05
Tau Millikan-White: 1.24597e-08
Tau Park: 2.4795e-05
Tau Millikan-White: 1.25492e-08
Tau Park: 2.4795e-05
Tau Millikan-White: 1.24597e-08
Tau Park: 2.4795e-05
Tau Millikan-White: 1.25492e-08
Tau Park: 2.4795e-05
Tau Millikan-White: 1.24597e-08
Tau Park: 2.4795e-05
Tau Millikan-White: 1.25492e-08
Tau Park: 2.4795e-05
Tau Millikan-White: 1.24597e-08
Tau Park: 2.4795e-05
Tau Millikan-White: 1.25492e-08
Tau Park: 2.4795e-05
Tau Millikan-White: 1.24597e-08
Tau Park: 2.4795e-05
Tau Millikan-White: 1.25492e-08
Tau Park: 2.4795e-05
Tau Millikan-White: 1.24597e-08
Tau Park: 2.4795e-05
Tau Millikan-White: 1.25492e-08
Tau Park: 2.4795e-05
Tau Millikan-White: 1.24597e-08
Tau Park: 2.4795e-05
Tau Millikan-White: 1.25492e-08
Tau Park: 2.4795e-05
Tau Millikan-White: 1.24597e-08
Tau Park: 2.4795e-05
Tau Millikan-White: 1.25492e-08
Tau Park: 2.4795e-05
Tau Millikan-White: 1.24597e-08
Tau Park: 2.4795e-05
Tau Millikan-White: 1.25492e-08
Tau Park: 2.4795e-05
Tau Millikan-White: 1.24597e-08
Tau Park: 2.4795e-05
Tau Millikan-White: 1.25492e-08
Tau Park: 2.4795e-05
Tau Millikan-White: 1.24597e-08
Tau Park: 2.4795e-05
Tau Millikan-White: 1.25492e-08
Tau Park: 2.4795e-05
Tau Millikan-White: 1.24597e-08
Tau Park: 2.4795e-05
Tau Millikan-White: 1.25492e-08
Tau Park: 2.4795e-05
Tau Millikan-White: 1.24597e-08
Tau Park: 2.4795e-05
Tau Millikan-White: 1.25492e-08
Tau Park: 2.4795e-05
Tau Millikan-White: 1.24597e-08
Tau Park: 2.4795e-05
Tau Millikan-White: 1.25492e-08
Tau Park: 2.4795e-05
Tau Millikan-White: 1.24597e-08
Tau Park: 2.4795e-05
Tau Millikan-White: 1.25492e-08
Tau Park: 2.4795e-05
Tau Millikan-White: 1.24597e-08
Tau Park: 2.4795e-05
Tau Millikan-White: 1.25492e-08
Tau Park: 2.4795e-05
Tau Millikan-White: 1.24597e-08
Tau Park: 2.4795e-05
Tau Millikan-White: 1.25492e-08
Tau Park: 2.4795e-05
Tau Millikan-White: 1.24597e-08
Tau Park: 2.4795e-05
Tau Millikan-White: 1.25492e-08
Tau Park: 2.4795e-05
Tau Millikan-White: 1.24597e-08
Tau Park: 2.4795e-05
Tau Millikan-White: 1.25492e-08
Tau Park: 2.4795e-05
Tau Millikan-White: 1.24597e-08
Tau Park: 2.4795e-05
Tau Millikan-White: 1.25492e-08
Tau Park: 2.4795e-05
Tau Millikan-White: 1.24597e-08
Tau Park: 2.4795e-05
Tau Millikan-White: 1.25492e-08
Tau Park: 2.4795e-05
Tau Millikan-White: 1.24597e-08
Tau Park: 2.4795e-05
Tau Millikan-White: 1.25492e-08
Tau Park: 2.4795e-05
Tau Millikan-White: 1.24597e-08
Tau Park: 2.4795e-05
Tau Millikan-White: 1.25492e-08
Tau Park: 2.4795e-05
Tau Millikan-White: 1.24597e-08
Tau Park: 2.4795e-05
Tau Millikan-White: 1.25492e-08
Tau Park: 2.4795e-05
Tau Millikan-White: 1.24597e-08
Tau Park: 2.4795e-05
Tau Millikan-White: 1.25492e-08
Tau Park: 2.4795e-05
Tau Millikan-White: 1.24597e-08
Tau Park: 2.4795e-05
Tau Millikan-White: 1.25492e-08
Tau Park: 2.4795e-05
Tau Millikan-White: 1.24597e-08
Tau Park: 2.4795e-05
Tau Millikan-White: 1.25492e-08
Tau Park: 2.4795e-05
Tau Millikan-White: 1.24597e-08
Tau Park: 2.4795e-05
Tau Millikan-White: 1.25492e-08
Tau Park: 2.4795e-05
Tau Millikan-White: 1.24597e-08
Tau Park: 2.4795e-05
Tau Millikan-White: 1.25492e-08
Tau Park: 2.4795e-05
Tau Millikan-White: 1.24597e-08
Tau Park: 2.4795e-05
Tau Millikan-White: 1.25492e-08
Tau Park: 2.4795e-05
Tau Millikan-White: 1.24597e-08
Tau Park: 2.4795e-05
Tau Millikan-White: 1.25492e-08
Tau Park: 2.4795e-05
Tau Millikan-White: 1.24597e-08
Tau Park: 2.4795e-05
Tau Millikan-White: 1.25492e-08
Tau Park: 2.4795e-05
Tau Millikan-White: 1.24597e-08
Tau Park: 2.4795e-05
Tau Millikan-White: 1.25492e-08
Tau Park: 2.4795e-05
Tau Millikan-White: 1.24597e-08
Tau Park: 2.4795e-05
Tau Millikan-White: 1.25492e-08
Tau Park: 2.4795e-05
Tau Millikan-White: 1.24597e-08
Tau Park: 2.4795e-05
Tau Millikan-White: 1.25492e-08
Tau Park: 2.4795e-05
Tau Millikan-White: 1.24597e-08
Tau Park: 2.4795e-05
Tau Millikan-White: 1.25492e-08
Tau Park: 2.4795e-05
Tau Millikan-White: 1.24597e-08
Tau Park: 2.4795e-05
Tau Millikan-White: 1.25492e-08
Tau Park: 2.4795e-05
Tau Millikan-White: 1.24597e-08
Tau Park: 2.4795e-05
Tau Millikan-White: 1.25492e-08
Tau Park: 2.4795e-05
Tau Millikan-White: 1.24597e-08
Tau Park: 2.4795e-05
Tau Millikan-White: 1.25492e-08
Tau Park: 2.4795e-05
Tau Millikan-White: 1.24597e-08
Tau Park: 2.4795e-05
Tau Millikan-White: 1.25492e-08
Tau Park: 2.4795e-05
Tau Millikan-White: 1.24597e-08
Tau Park: 2.4795e-05
Tau Millikan-White: 1.25492e-08
Tau Park: 2.4795e-05
Tau Millikan-White: 1.24597e-08
Tau Park: 2.4795e-05
Tau Millikan-White: 1.25492e-08
Tau Park: 2.4795e-05
Tau Millikan-White: 1.24597e-08
Tau Park: 2.4795e-05
Tau Millikan-White: 1.25492e-08
Tau Park: 2.4795e-05
Tau Millikan-White: 1.24597e-08
Tau Park: 2.4795e-05
Tau Millikan-White: 1.25492e-08
Tau Park: 2.4795e-05
Tau Millikan-White: 1.24597e-08
Tau Park: 2.4795e-05
Tau Millikan-White: 1.25492e-08
Tau Park: 2.4795e-05
Tau Millikan-White: 1.24597e-08
Tau Park: 2.4795e-05
Tau Millikan-White: 1.25492e-08
Tau Park: 2.4795e-05
Tau Millikan-White: 1.24597e-08
Tau Park: 2.4795e-05
Tau Millikan-White: 1.25492e-08
Tau Park: 2.4795e-05
Tau Millikan-White: 1.24597e-08
Tau Park: 2.4795e-05
Tau Millikan-White: 1.25492e-08
Tau Park: 2.4795e-05
Tau Millikan-White: 1.24597e-08
Tau Park: 2.4795e-05
Tau Millikan-White: 1.25492e-08
Tau Park: 2.4795e-05
Tau Millikan-White: 1.24597e-08
Tau Park: 2.4795e-05
Tau Millikan-White: 1.25492e-08
Tau Park: 2.4795e-05
Tau Millikan-White: 1.24597e-08
Tau Park: 2.4795e-05
Tau Millikan-White: 1.25492e-08
Tau Park: 2.4795e-05
Tau Millikan-White: 1.24597e-08
Tau Park: 2.4795e-05
Tau Millikan-White: 1.25492e-08
Tau Park: 2.4795e-05
Tau Millikan-White: 1.24597e-08
Tau Park: 2.4795e-05
Tau Millikan-White: 1.25492e-08
Tau Park: 2.4795e-05
Tau Millikan-White: 1.24597e-08
Tau Park: 2.4795e-05
Tau Millikan-White: 1.25492e-08
Tau Park: 2.4795e-05
Tau Millikan-White: 1.24597e-08
Tau Park: 2.4795e-05
Tau Millikan-White: 1.25492e-08
Tau Park: 2.4795e-05
Tau Millikan-White: 1.24597e-08
Tau Park: 2.4795e-05
Tau Millikan-White: 1.25492e-08
Tau Park: 2.4795e-05
Tau Millikan-White: 1.24597e-08
Tau Park: 2.4795e-05
Tau Millikan-White: 1.25492e-08
Tau Park: 2.4795e-05
Tau Millikan-White: 1.24597e-08
Tau Park: 2.4795e-05
Tau Millikan-White: 1.25492e-08
Tau Park: 2.4795e-05
Tau Millikan-White: 1.24597e-08
Tau Park: 2.4795e-05
Tau Millikan-White: 1.25492e-08
Tau Park: 2.4795e-05
Tau Millikan-White: 1.24597e-08
Tau Park: 2.4795e-05
Tau Millikan-White: 1.25492e-08
Tau Park: 2.4795e-05
Tau Millikan-White: 1.24597e-08
Tau Park: 2.4795e-05
Tau Millikan-White: 1.25492e-08
Tau Park: 2.4795e-05
Tau Millikan-White: 1.24597e-08
Tau Park: 2.4795e-05
Tau Millikan-White: 1.25492e-08
Tau Park: 2.4795e-05
Tau Millikan-White: 1.24597e-08
Tau Park: 2.4795e-05
Tau Millikan-White: 1.25492e-08
Tau Park: 2.4795e-05
Tau Millikan-White: 1.24597e-08
Tau Park: 2.4795e-05
Tau Millikan-White: 1.25492e-08
Tau Park: 2.4795e-05
Tau Millikan-White: 1.24597e-08
Tau Park: 2.4795e-05
Tau Millikan-White: 1.25492e-08
Tau Park: 2.4795e-05
Tau Millikan-White: 1.24597e-08
Tau Park: 2.4795e-05
Tau Millikan-White: 1.25492e-08
Tau Park: 2.4795e-05
Tau Millikan-White: 1.24597e-08
Tau Park: 2.4795e-05
Tau Millikan-White: 1.25492e-08
Tau Park: 2.4795e-05
Tau Millikan-White: 1.24597e-08
Tau Park: 2.4795e-05
Tau Millikan-White: 1.25492e-08
Tau Park: 2.4795e-05
Tau Millikan-White: 1.24597e-08
Tau Park: 2.4795e-05
Tau Millikan-White: 1.25492e-08
Tau Park: 2.4795e-05
Tau Millikan-White: 1.24597e-08
Tau Park: 2.4795e-05
Tau Millikan-White: 1.25492e-08
Tau Park: 2.4795e-05
Tau Millikan-White: 1.24597e-08
Tau Park: 2.4795e-05
Tau Millikan-White: 1.25492e-08
Tau Park: 2.4795e-05
Tau Millikan-White: 1.24597e-08
Tau Park: 2.4795e-05
Tau Millikan-White: 1.25492e-08
Tau Park: 2.4795e-05
Tau Millikan-White: 1.24597e-08
Tau Park: 2.4795e-05
Tau Millikan-White: 1.25492e-08
Tau Park: 2.4795e-05
Tau Millikan-White: 1.24597e-08
Tau Park: 2.4795e-05
Tau Millikan-White: 1.25492e-08
Tau Park: 2.4795e-05
Tau Millikan-White: 1.24597e-08
Tau Park: 2.4795e-05
Tau Millikan-White: 1.25492e-08
Tau Park: 2.4795e-05
Tau Millikan-White: 1.24597e-08
Tau Park: 2.4795e-05
Tau Millikan-White: 1.25492e-08
Tau Park: 2.4795e-05
Tau Millikan-White: 1.24597e-08
Tau Park: 2.4795e-05
Tau Millikan-White: 1.25492e-08
Tau Park: 2.4795e-05
Tau Millikan-White: 1.24597e-08
Tau Park: 2.4795e-05
Tau Millikan-White: 1.25492e-08
Tau Park: 2.4795e-05
Tau Millikan-White: 1.24597e-08
Tau Park: 2.4795e-05
Tau Millikan-White: 1.25492e-08
Tau Park: 2.4795e-05
Tau Millikan-White: 1.24597e-08
Tau Park: 2.4795e-05
Tau Millikan-White: 1.25492e-08
Tau Park: 2.4795e-05
Tau Millikan-White: 1.24597e-08
Tau Park: 2.4795e-05
Tau Millikan-White: 1.25492e-08
Tau Park: 2.4795e-05
Tau Millikan-White: 1.24597e-08
Tau Park: 2.4795e-05
Tau Millikan-White: 1.25492e-08
Tau Park: 2.4795e-05
Tau Millikan-White: 1.24597e-08
Tau Park: 2.4795e-05
Tau Millikan-White: 1.25492e-08
Tau Park: 2.4795e-05
Tau Millikan-White: 1.24597e-08
Tau Park: 2.4795e-05
Tau Millikan-White: 1.25492e-08
Tau Park: 2.4795e-05
Tau Millikan-White: 1.24597e-08
Tau Park: 2.4795e-05
Tau Millikan-White: 1.25492e-08
Tau Park: 2.4795e-05
Tau Millikan-White: 1.24597e-08
Tau Park: 2.4795e-05
Tau Millikan-White: 1.25492e-08
Tau Park: 2.4795e-05
Tau Millikan-White: 1.24597e-08
Tau Park: 2.4795e-05
Tau Millikan-White: 1.25492e-08
Tau Park: 2.4795e-05
Tau Millikan-White: 1.24597e-08
Tau Park: 2.4795e-05
Tau Millikan-White: 1.25492e-08
Tau Park: 2.4795e-05
Tau Millikan-White: 1.24597e-08
Tau Park: 2.4795e-05
Tau Millikan-White: 1.25492e-08
Tau Park: 2.4795e-05
Tau Millikan-White: 1.24597e-08
Tau Park: 2.4795e-05
Tau Millikan-White: 1.25492e-08
Tau Park: 2.4795e-05
Tau Millikan-White: 1.24597e-08
Tau Park: 2.4795e-05
Tau Millikan-White: 1.25492e-08
Tau Park: 2.4795e-05
Tau Millikan-White: 1.24597e-08
Tau Park: 2.4795e-05
Tau Millikan-White: 1.25492e-08
Tau Park: 2.4795e-05
Tau Millikan-White: 1.24597e-08
Tau Park: 2.4795e-05
Tau Millikan-White: 1.25492e-08
Tau Park: 2.4795e-05
Tau Millikan-White: 1.24597e-08
Tau Park: 2.4795e-05
Tau Millikan-White: 1.25492e-08
Tau Park: 2.4795e-05
Tau Millikan-White: 1.24597e-08
Tau Park: 2.4795e-05
Tau Millikan-White: 1.25492e-08
Tau Park: 2.4795e-05
Tau Millikan-White: 1.24597e-08
Tau Park: 2.4795e-05
Tau Millikan-White: 1.25492e-08
Tau Park: 2.4795e-05
Tau Millikan-White: 1.24597e-08
Tau Park: 2.4795e-05
Tau Millikan-White: 1.25492e-08
Tau Park: 2.4795e-05
Tau Millikan-White: 1.24597e-08
Tau Park: 2.4795e-05
Tau Millikan-White: 1.25492e-08
Tau Park: 2.4795e-05
Tau Millikan-White: 1.24597e-08
Tau Park: 2.4795e-05
Tau Millikan-White: 1.25492e-08
Tau Park: 2.4795e-05
Tau Millikan-White: 1.24597e-08
Tau Park: 2.4795e-05
Tau Millikan-White: 1.25492e-08
Tau Park: 2.4795e-05
Tau Millikan-White: 1.24597e-08
Tau Park: 2.4795e-05
Tau Millikan-White: 1.25492e-08
Tau Park: 2.4795e-05
Tau Millikan-White: 1.24597e-08
Tau Park: 2.4795e-05
Tau Millikan-White: 1.25492e-08
Tau Park: 2.4795e-05
Tau Millikan-White: 1.24597e-08
Tau Park: 2.4795e-05
Tau Millikan-White: 1.25492e-08
Tau Park: 2.4795e-05
Tau Millikan-White: 1.24597e-08
Tau Park: 2.4795e-05
Tau Millikan-White: 1.25492e-08
Tau Park: 2.4795e-05
Tau Millikan-White: 1.24597e-08
Tau Park: 2.4795e-05
Tau Millikan-White: 1.25492e-08
Tau Park: 2.4795e-05
Tau Millikan-White: 1.24597e-08
Tau Park: 2.4795e-05
Tau Millikan-White: 1.25492e-08
Tau Park: 2.4795e-05
Tau Millikan-White: 1.24597e-08
Tau Park: 2.4795e-05
Tau Millikan-White: 1.25492e-08
Tau Park: 2.4795e-05
Tau Millikan-White: 1.24597e-08
Tau Park: 2.4795e-05
Tau Millikan-White: 1.25492e-08
Tau Park: 2.4795e-05
Tau Millikan-White: 1.24597e-08
Tau Park: 2.4795e-05
Tau Millikan-White: 1.25492e-08
Tau Park: 2.4795e-05
Tau Millikan-White: 1.24597e-08
Tau Park: 2.4795e-05
Tau Millikan-White: 1.25492e-08
Tau Park: 2.4795e-05
Tau Millikan-White: 1.24597e-08
Tau Park: 2.4795e-05
Tau Millikan-White: 1.25492e-08
Tau Park: 2.4795e-05
Tau Millikan-White: 1.24597e-08
Tau Park: 2.4795e-05
Tau Millikan-White: 1.25492e-08
Tau Park: 2.4795e-05
Tau Millikan-White: 1.24597e-08
Tau Park: 2.4795e-05
Tau Millikan-White: 1.25492e-08
Tau Park: 2.4795e-05
Tau Millikan-White: 1.24597e-08
Tau Park: 2.4795e-05
Tau Millikan-White: 1.25492e-08
Tau Park: 2.4795e-05
Tau Millikan-White: 1.24597e-08
Tau Park: 2.4795e-05
Tau Millikan-White: 1.25492e-08
Tau Park: 2.4795e-05
Tau Millikan-White: 1.24597e-08
Tau Park: 2.4795e-05
Tau Millikan-White: 1.25492e-08
Tau Park: 2.4795e-05
Tau Millikan-White: 1.24597e-08
Tau Park: 2.4795e-05
Tau Millikan-White: 1.25492e-08
Tau Park: 2.4795e-05
Tau Millikan-White: 1.24597e-08
Tau Park: 2.4795e-05
Tau Millikan-White: 1.25492e-08
Tau Park: 2.4795e-05
Tau Millikan-White: 1.24597e-08
Tau Park: 2.4795e-05
Tau Millikan-White: 1.25492e-08
Tau Park: 2.4795e-05
Tau Millikan-White: 1.24597e-08
Tau Park: 2.4795e-05
Tau Millikan-White: 1.25492e-08
Tau Park: 2.4795e-05
Tau Millikan-White: 1.24597e-08
Tau Park: 2.4795e-05
Tau Millikan-White: 1.25492e-08
Tau Park: 2.4795e-05
Tau Millikan-White: 1.24597e-08
Tau Park: 2.4795e-05
Tau Millikan-White: 1.25492e-08
Tau Park: 2.4795e-05
Tau Millikan-White: 1.24597e-08
Tau Park: 2.4795e-05
Tau Millikan-White: 1.25492e-08
Tau Park: 2.4795e-05
Tau Millikan-White: 1.24597e-08
Tau Park: 2.4795e-05
Tau Millikan-White: 1.25492e-08
Tau Park: 2.4795e-05
Tau Millikan-White: 1.24597e-08
Tau Park: 2.4795e-05
Tau Millikan-White: 1.25492e-08
Tau Park: 2.4795e-05
Tau Millikan-White: 1.24597e-08
Tau Park: 2.4795e-05
Tau Millikan-White: 1.25492e-08
Tau Park: 2.4795e-05
Tau Millikan-White: 1.24597e-08
Tau Park: 2.4795e-05
Tau Millikan-White: 1.25492e-08
Tau Park: 2.4795e-05
Tau Millikan-White: 1.24597e-08
Tau Park: 2.4795e-05
Tau Millikan-White: 1.25492e-08
Tau Park: 2.4795e-05
Tau Millikan-White: 1.24597e-08
Tau Park: 2.4795e-05
Tau Millikan-White: 1.25492e-08
Tau Park: 2.4795e-05
Tau Millikan-White: 1.24597e-08
Tau Park: 2.4795e-05
Tau Millikan-White: 1.25492e-08
Tau Park: 2.4795e-05
Tau Millikan-White: 1.24597e-08
Tau Park: 2.4795e-05
Tau Millikan-White: 1.25492e-08
Tau Park: 2.4795e-05
Tau Millikan-White: 1.24597e-08
Tau Park: 2.4795e-05
Tau Millikan-White: 1.25492e-08
Tau Park: 2.4795e-05
Tau Millikan-White: 1.24597e-08
Tau Park: 2.4795e-05
Tau Millikan-White: 1.25492e-08
Tau Park: 2.4795e-05
Tau Millikan-White: 1.24597e-08
Tau Park: 2.4795e-05
Tau Millikan-White: 1.25492e-08
Tau Park: 2.4795e-05
Tau Millikan-White: 1.24597e-08
Tau Park: 2.4795e-05
Tau Millikan-White: 1.25492e-08
Tau Park: 2.4795e-05
Tau Millikan-White: 1.24597e-08
Tau Park: 2.4795e-05
Tau Millikan-White: 1.25492e-08
Tau Park: 2.4795e-05
Tau Millikan-White: 1.24597e-08
Tau Park: 2.4795e-05
Tau Millikan-White: 1.25492e-08
Tau Park: 2.4795e-05
Tau Millikan-White: 1.24597e-08
Tau Park: 2.4795e-05
Tau Millikan-White: 1.25492e-08
Tau Park: 2.4795e-05
Tau Millikan-White: 1.24597e-08
Tau Park: 2.4795e-05
Tau Millikan-White: 1.25492e-08
Tau Park: 2.4795e-05
Tau Millikan-White: 1.24597e-08
Tau Park: 2.4795e-05
Tau Millikan-White: 1.25492e-08
Tau Park: 2.4795e-05
Tau Millikan-White: 1.24597e-08
Tau Park: 2.4795e-05
Tau Millikan-White: 1.25492e-08
Tau Park: 2.4795e-05
Tau Millikan-White: 1.24597e-08
Tau Park: 2.4795e-05
Tau Millikan-White: 1.25492e-08
Tau Park: 2.4795e-05
Tau Millikan-White: 1.24597e-08
Tau Park: 2.4795e-05
Tau Millikan-White: 1.25492e-08
Tau Park: 2.4795e-05
Tau Millikan-White: 1.24597e-08
Tau Park: 2.4795e-05
Tau Millikan-White: 1.25492e-08
Tau Park: 2.4795e-05
Tau Millikan-White: 1.24597e-08
Tau Park: 2.4795e-05
Tau Millikan-White: 1.25492e-08
Tau Park: 2.4795e-05
Tau Millikan-White: 1.24597e-08
Tau Park: 2.4795e-05
Tau Millikan-White: 1.25492e-08
Tau Park: 2.4795e-05
Tau Millikan-White: 1.24597e-08
Tau Park: 2.4795e-05
Tau Millikan-White: 1.25492e-08
Tau Park: 2.4795e-05
Tau Millikan-White: 1.24597e-08
Tau Park: 2.4795e-05
Tau Millikan-White: 1.25492e-08
Tau Park: 2.4795e-05
Tau Millikan-White: 1.24597e-08
Tau Park: 2.4795e-05
Tau Millikan-White: 1.25492e-08
Tau Park: 2.4795e-05
Tau Millikan-White: 1.24597e-08
Tau Park: 2.4795e-05
Tau Millikan-White: 1.25492e-08
Tau Park: 2.4795e-05
Tau Millikan-White: 1.24597e-08
Tau Park: 2.4795e-05
Tau Millikan-White: 1.25492e-08
Tau Park: 2.4795e-05
Tau Millikan-White: 1.24597e-08
Tau Park: 2.4795e-05
Tau Millikan-White: 1.25492e-08
Tau Park: 2.4795e-05
Tau Millikan-White: 1.24597e-08
Tau Park: 2.4795e-05
Tau Millikan-White: 1.25492e-08
Tau Park: 2.4795e-05
Tau Millikan-White: 1.24597e-08
Tau Park: 2.4795e-05
Tau Millikan-White: 1.25492e-08
Tau Park: 2.4795e-05
Tau Millikan-White: 1.24597e-08
Tau Park: 2.4795e-05
Tau Millikan-White: 1.25492e-08
Tau Park: 2.4795e-05
Tau Millikan-White: 1.24597e-08
Tau Park: 2.4795e-05
Tau Millikan-White: 1.25492e-08
Tau Park: 2.4795e-05
Tau Millikan-White: 1.24597e-08
Tau Park: 2.4795e-05
Tau Millikan-White: 1.25492e-08
Tau Park: 2.4795e-05
Tau Millikan-White: 1.24597e-08
Tau Park: 2.4795e-05
Tau Millikan-White: 1.25492e-08
Tau Park: 2.4795e-05
Tau Millikan-White: 1.24597e-08
Tau Park: 2.4795e-05
Tau Millikan-White: 1.25492e-08
Tau Park: 2.4795e-05
Tau Millikan-White: 1.24597e-08
Tau Park: 2.4795e-05
Tau Millikan-White: 1.25492e-08
Tau Park: 2.4795e-05
Tau Millikan-White: 1.24597e-08
Tau Park: 2.4795e-05
Tau Millikan-White: 1.25492e-08
Tau Park: 2.4795e-05
Tau Millikan-White: 1.24597e-08
Tau Park: 2.4795e-05
Tau Millikan-White: 1.25492e-08
Tau Park: 2.4795e-05
Tau Millikan-White: 1.24597e-08
Tau Park: 2.4795e-05
Tau Millikan-White: 1.25492e-08
Tau Park: 2.4795e-05
Tau Millikan-White: 1.24597e-08
Tau Park: 2.4795e-05
Tau Millikan-White: 1.25492e-08
Tau Park: 2.4795e-05
Tau Millikan-White: 1.24597e-08
Tau Park: 2.4795e-05
Tau Millikan-White: 1.25492e-08
Tau Park: 2.4795e-05
Tau Millikan-White: 1.24597e-08
Tau Park: 2.4795e-05
Tau Millikan-White: 1.25492e-08
Tau Park: 2.4795e-05
Tau Millikan-White: 1.24597e-08
Tau Park: 2.4795e-05
Tau Millikan-White: 1.25492e-08
Tau Park: 2.4795e-05
Tau Millikan-White: 1.24597e-08
Tau Park: 2.4795e-05
Tau Millikan-White: 1.25492e-08
Tau Park: 2.4795e-05
Tau Millikan-White: 1.24597e-08
Tau Park: 2.4795e-05
Tau Millikan-White: 1.25492e-08
Tau Park: 2.4795e-05
Tau Millikan-White: 1.24597e-08
Tau Park: 2.4795e-05
Tau Millikan-White: 1.25492e-08
Tau Park: 2.4795e-05
Tau Millikan-White: 1.24597e-08
Tau Park: 2.4795e-05
Tau Millikan-White: 1.25492e-08
Tau Park: 2.4795e-05
Tau Millikan-White: 1.24597e-08
Tau Park: 2.4795e-05
Tau Millikan-White: 1.25492e-08
Tau Park: 2.4795e-05
Tau Millikan-White: 1.24597e-08
Tau Park: 2.4795e-05
Tau Millikan-White: 1.25492e-08
Tau Park: 2.4795e-05
Tau Millikan-White: 1.24597e-08
Tau Park: 2.4795e-05
Tau Millikan-White: 1.25492e-08
Tau Park: 2.4795e-05
Tau Millikan-White: 1.24597e-08
Tau Park: 2.4795e-05
Tau Millikan-White: 1.25492e-08
Tau Park: 2.4795e-05
Tau Millikan-White: 1.24597e-08
Tau Park: 2.4795e-05
Tau Millikan-White: 1.25492e-08
Tau Park: 2.4795e-05
Tau Millikan-White: 1.24597e-08
Tau Park: 2.4795e-05
Tau Millikan-White: 1.25492e-08
Tau Park: 2.4795e-05
Tau Millikan-White: 1.24597e-08
Tau Park: 2.4795e-05
Tau Millikan-White: 1.25492e-08
Tau Park: 2.4795e-05
Tau Millikan-White: 1.24597e-08
Tau Park: 2.4795e-05
Tau Millikan-White: 1.25492e-08
Tau Park: 2.4795e-05
Tau Millikan-White: 1.24597e-08
Tau Park: 2.4795e-05
Tau Millikan-White: 1.25492e-08
Tau Park: 2.4795e-05
Tau Millikan-White: 1.24597e-08
Tau Park: 2.4795e-05
Tau Millikan-White: 1.25492e-08
Tau Park: 2.4795e-05
Tau Millikan-White: 1.24597e-08
Tau Park: 2.4795e-05
Tau Millikan-White: 1.25492e-08
Tau Park: 2.4795e-05
Tau Millikan-White: 1.24597e-08
Tau Park: 2.4795e-05
Tau Millikan-White: 1.25492e-08
Tau Park: 2.4795e-05
Tau Millikan-White: 1.24597e-08
Tau Park: 2.4795e-05
Tau Millikan-White: 1.25492e-08
Tau Park: 2.4795e-05
Tau Millikan-White: 1.24597e-08
Tau Park: 2.4795e-05
Tau Millikan-White: 1.25492e-08
Tau Park: 2.4795e-05
Tau Millikan-White: 1.24597e-08
Tau Park: 2.4795e-05
Tau Millikan-White: 1.25492e-08
Tau Park: 2.4795e-05
Tau Millikan-White: 1.24597e-08
Tau Park: 2.4795e-05
Tau Millikan-White: 1.25492e-08
Tau Park: 2.4795e-05
Tau Millikan-White: 1.24597e-08
Tau Park: 2.4795e-05
Tau Millikan-White: 1.25492e-08
Tau Park: 2.4795e-05
Tau Millikan-White: 1.24597e-08
Tau Park: 2.4795e-05
Tau Millikan-White: 1.25492e-08
Tau Park: 2.4795e-05
Tau Millikan-White: 1.24597e-08
Tau Park: 2.4795e-05
Tau Millikan-White: 1.25492e-08
Tau Park: 2.4795e-05
Tau Millikan-White: 1.24597e-08
Tau Park: 2.4795e-05
Tau Millikan-White: 1.25492e-08
Tau Park: 2.4795e-05
Tau Millikan-White: 1.24597e-08
Tau Park: 2.4795e-05
Tau Millikan-White: 1.25492e-08
Tau Park: 2.4795e-05
Tau Millikan-White: 1.24597e-08
Tau Park: 2.4795e-05
Tau Millikan-White: 1.25492e-08
Tau Park: 2.4795e-05
Tau Millikan-White: 1.24597e-08
Tau Park: 2.4795e-05
Tau Millikan-White: 1.25492e-08
Tau Park: 2.4795e-05
Tau Millikan-White: 1.24597e-08
Tau Park: 2.4795e-05
Tau Millikan-White: 1.25492e-08
Tau Park: 2.4795e-05
Tau Millikan-White: 1.24597e-08
Tau Park: 2.4795e-05
Tau Millikan-White: 1.25492e-08
Tau Park: 2.4795e-05
Tau Millikan-White: 1.24597e-08
Tau Park: 2.4795e-05
Tau Millikan-White: 1.25492e-08
Tau Park: 2.4795e-05
Tau Millikan-White: 1.24597e-08
Tau Park: 2.4795e-05
Tau Millikan-White: 1.25492e-08
Tau Park: 2.4795e-05
Tau Millikan-White: 1.24597e-08
Tau Park: 2.4795e-05
Tau Millikan-White: 1.25492e-08
Tau Park: 2.4795e-05
Tau Millikan-White: 1.24597e-08
Tau Park: 2.4795e-05
Tau Millikan-White: 1.25492e-08
Tau Park: 2.4795e-05
Tau Millikan-White: 1.24597e-08
Tau Park: 2.4795e-05
Tau Millikan-White: 1.25492e-08
Tau Park: 2.4795e-05
Tau Millikan-White: 1.24597e-08
Tau Park: 2.4795e-05
Tau Millikan-White: 1.25492e-08
Tau Park: 2.4795e-05
Tau Millikan-White: 1.24597e-08
Tau Park: 2.4795e-05
Tau Millikan-White: 1.25492e-08
Tau Park: 2.4795e-05
Tau Millikan-White: 1.24597e-08
Tau Park: 2.4795e-05
Tau Millikan-White: 1.25492e-08
Tau Park: 2.4795e-05
Tau Millikan-White: 1.24597e-08
Tau Park: 2.4795e-05
Tau Millikan-White: 1.25492e-08
Tau Park: 2.4795e-05
Tau Millikan-White: 1.24597e-08
Tau Park: 2.4795e-05
Tau Millikan-White: 1.25492e-08
Tau Park: 2.4795e-05
Tau Millikan-White: 1.24597e-08
Tau Park: 2.4795e-05
Tau Millikan-White: 1.25492e-08
Tau Park: 2.4795e-05
Tau Millikan-White: 1.24597e-08
Tau Park: 2.4795e-05
Tau Millikan-White: 1.25492e-08
Tau Park: 2.4795e-05
Tau Millikan-White: 1.24597e-08
Tau Park: 2.4795e-05
Tau Millikan-White: 1.25492e-08
Tau Park: 2.4795e-05
Tau Millikan-White: 1.24597e-08
Tau Park: 2.4795e-05
Tau Millikan-White: 1.25492e-08
Tau Park: 2.4795e-05
Tau Millikan-White: 1.24597e-08
Tau Park: 2.4795e-05
Tau Millikan-White: 1.25492e-08
Tau Park: 2.4795e-05
Tau Millikan-White: 1.24597e-08
Tau Park: 2.4795e-05
Tau Millikan-White: 1.25492e-08
Tau Park: 2.4795e-05
Tau Millikan-White: 1.24597e-08
Tau Park: 2.4795e-05
Tau Millikan-White: 1.25492e-08
Tau Park: 2.4795e-05
Tau Millikan-White: 1.24597e-08
Tau Park: 2.4795e-05
Tau Millikan-White: 1.25492e-08
Tau Park: 2.4795e-05
Tau Millikan-White: 1.24597e-08
Tau Park: 2.4795e-05
Tau Millikan-White: 1.25492e-08
Tau Park: 2.4795e-05
Tau Millikan-White: 1.24597e-08
Tau Park: 2.4795e-05
Tau Millikan-White: 1.25492e-08
Tau Park: 2.4795e-05
Tau Millikan-White: 1.24597e-08
Tau Park: 2.4795e-05
Tau Millikan-White: 1.25492e-08
Tau Park: 2.4795e-05
Tau Millikan-White: 1.24597e-08
Tau Park: 2.4795e-05
Tau Millikan-White: 1.25492e-08
Tau Park: 2.4795e-05
Tau Millikan-White: 1.24597e-08
Tau Park: 2.4795e-05
Tau Millikan-White: 1.25492e-08
Tau Park: 2.4795e-05
Tau Millikan-White: 1.24597e-08
Tau Park: 2.4795e-05
Tau Millikan-White: 1.25492e-08
Tau Park: 2.4795e-05
Tau Millikan-White: 1.24597e-08
Tau Park: 2.4795e-05
Tau Millikan-White: 1.25492e-08
Tau Park: 2.4795e-05
Tau Millikan-White: 1.24597e-08
Tau Park: 2.4795e-05
Tau Millikan-White: 1.25492e-08
Tau Park: 2.4795e-05
Tau Millikan-White: 1.24597e-08
Tau Park: 2.4795e-05
Tau Millikan-White: 1.25492e-08
Tau Park: 2.4795e-05
Tau Millikan-White: 1.24597e-08
Tau Park: 2.4795e-05
Tau Millikan-White: 1.25492e-08
Tau Park: 2.4795e-05
Tau Millikan-White: 1.24597e-08
Tau Park: 2.4795e-05
Tau Millikan-White: 1.25492e-08
Tau Park: 2.4795e-05
Tau Millikan-White: 1.24597e-08
Tau Park: 2.4795e-05
Tau Millikan-White: 1.25492e-08
Tau Park: 2.4795e-05
Tau Millikan-White: 1.24597e-08
Tau Park: 2.4795e-05
Tau Millikan-White: 1.25492e-08
Tau Park: 2.4795e-05
Tau Millikan-White: 1.24597e-08
Tau Park: 2.4795e-05
Tau Millikan-White: 1.25492e-08
Tau Park: 2.4795e-05
Tau Millikan-White: 1.24597e-08
Tau Park: 2.4795e-05
Tau Millikan-White: 1.25492e-08
Tau Park: 2.4795e-05
Tau Millikan-White: 1.24597e-08
Tau Park: 2.4795e-05
Tau Millikan-White: 1.25492e-08
Tau Park: 2.4795e-05
Tau Millikan-White: 1.24597e-08
Tau Park: 2.4795e-05
Tau Millikan-White: 1.25492e-08
Tau Park: 2.4795e-05
Tau Millikan-White: 1.24597e-08
Tau Park: 2.4795e-05
Tau Millikan-White: 1.25492e-08
Tau Park: 2.4795e-05
Tau Millikan-White: 1.24597e-08
Tau Park: 2.4795e-05
Tau Millikan-White: 1.25492e-08
Tau Park: 2.4795e-05
Tau Millikan-White: 1.24597e-08
Tau Park: 2.4795e-05
Tau Millikan-White: 1.25492e-08
Tau Park: 2.4795e-05
Tau Millikan-White: 1.24597e-08
Tau Park: 2.4795e-05
Tau Millikan-White: 1.25492e-08
Tau Park: 2.4795e-05
Tau Millikan-White: 1.24597e-08
Tau Park: 2.4795e-05
Tau Millikan-White: 1.25492e-08
Tau Park: 2.4795e-05
Tau Millikan-White: 1.24597e-08
Tau Park: 2.4795e-05
Tau Millikan-White: 1.25492e-08
Tau Park: 2.4795e-05
Tau Millikan-White: 1.24597e-08
Tau Park: 2.4795e-05
Tau Millikan-White: 1.25492e-08
Tau Park: 2.4795e-05
Tau Millikan-White: 1.24597e-08
Tau Park: 2.4795e-05
Tau Millikan-White: 1.25492e-08
Tau Park: 2.4795e-05
Tau Millikan-White: 1.24597e-08
Tau Park: 2.4795e-05
Tau Millikan-White: 1.25492e-08
Tau Park: 2.4795e-05
Tau Millikan-White: 1.24597e-08
Tau Park: 2.4795e-05
Tau Millikan-White: 1.25492e-08
Tau Park: 2.4795e-05
Tau Millikan-White: 1.24597e-08
Tau Park: 2.4795e-05
Tau Millikan-White: 1.25492e-08
Tau Park: 2.4795e-05
Tau Millikan-White: 1.24597e-08
Tau Park: 2.4795e-05
Tau Millikan-White: 1.25492e-08
Tau Park: 2.4795e-05
Tau Millikan-White: 1.24597e-08
Tau Park: 2.4795e-05
Tau Millikan-White: 1.25492e-08
Tau Park: 2.4795e-05
Tau Millikan-White: 1.24597e-08
Tau Park: 2.4795e-05
Tau Millikan-White: 1.25492e-08
Tau Park: 2.4795e-05
Tau Millikan-White: 1.24597e-08
Tau Park: 2.4795e-05
Tau Millikan-White: 1.25492e-08
Tau Park: 2.4795e-05
Tau Millikan-White: 1.24597e-08
Tau Park: 2.4795e-05
Tau Millikan-White: 1.25492e-08
Tau Park: 2.4795e-05
Tau Millikan-White: 1.24597e-08
Tau Park: 2.4795e-05
Tau Millikan-White: 1.25492e-08
Tau Park: 2.4795e-05
Tau Millikan-White: 1.24597e-08
Tau Park: 2.4795e-05
Tau Millikan-White: 1.25492e-08
Tau Park: 2.4795e-05
Tau Millikan-White: 1.24597e-08
Tau Park: 2.4795e-05
Tau Millikan-White: 1.25492e-08
Tau Park: 2.4795e-05
Tau Millikan-White: 1.24597e-08
Tau Park: 2.4795e-05
Tau Millikan-White: 1.25492e-08
Tau Park: 2.4795e-05
Tau Millikan-White: 1.24597e-08
Tau Park: 2.4795e-05
Tau Millikan-White: 1.25492e-08
Tau Park: 2.4795e-05
Tau Millikan-White: 1.24597e-08
Tau Park: 2.4795e-05
Tau Millikan-White: 1.25492e-08
Tau Park: 2.4795e-05
Tau Millikan-White: 1.24597e-08
Tau Park: 2.4795e-05
Tau Millikan-White: 1.25492e-08
Tau Park: 2.4795e-05
Tau Millikan-White: 1.24597e-08
Tau Park: 2.4795e-05
Tau Millikan-White: 1.25492e-08
Tau Park: 2.4795e-05
Tau Millikan-White: 1.24597e-08
Tau Park: 2.4795e-05
Tau Millikan-White: 1.25492e-08
Tau Park: 2.4795e-05
Tau Millikan-White: 1.24597e-08
Tau Park: 2.4795e-05
Tau Millikan-White: 1.25492e-08
Tau Park: 2.4795e-05
Tau Millikan-White: 1.24597e-08
Tau Park: 2.4795e-05
Tau Millikan-White: 1.25492e-08
Tau Park: 2.4795e-05
Tau Millikan-White: 1.24597e-08
Tau Park: 2.4795e-05
Tau Millikan-White: 1.25492e-08
Tau Park: 2.4795e-05
Tau Millikan-White: 1.24597e-08
Tau Park: 2.4795e-05
Tau Millikan-White: 1.25492e-08
Tau Park: 2.4795e-05
Tau Millikan-White: 1.24597e-08
Tau Park: 2.4795e-05
Tau Millikan-White: 1.25492e-08
Tau Park: 2.4795e-05
Tau Millikan-White: 1.24597e-08
Tau Park: 2.4795e-05
Tau Millikan-White: 1.25492e-08
Tau Park: 2.4795e-05
Tau Millikan-White: 1.24597e-08
Tau Park: 2.4795e-05
Tau Millikan-White: 1.25492e-08
Tau Park: 2.4795e-05
Tau Millikan-White: 1.24597e-08
Tau Park: 2.4795e-05
Tau Millikan-White: 1.25492e-08
Tau Park: 2.4795e-05
Tau Millikan-White: 1.24597e-08
Tau Park: 2.4795e-05
Tau Millikan-White: 1.25492e-08
Tau Park: 2.4795e-05
Tau Millikan-White: 1.24597e-08
Tau Park: 2.4795e-05
Tau Millikan-White: 1.25492e-08
Tau Park: 2.4795e-05
Tau Millikan-White: 1.24597e-08
Tau Park: 2.4795e-05
Tau Millikan-White: 1.25492e-08
Tau Park: 2.4795e-05
Tau Millikan-White: 1.24597e-08
Tau Park: 2.4795e-05
Tau Millikan-White: 1.25492e-08
Tau Park: 2.4795e-05
Tau Millikan-White: 1.24597e-08
Tau Park: 2.4795e-05
Tau Millikan-White: 1.25492e-08
Tau Park: 2.4795e-05
Tau Millikan-White: 1.24597e-08
Tau Park: 2.4795e-05
Tau Millikan-White: 1.25492e-08
Tau Park: 2.4795e-05
Tau Millikan-White: 1.24597e-08
Tau Park: 2.4795e-05
Tau Millikan-White: 1.25492e-08
Tau Park: 2.4795e-05
Tau Millikan-White: 1.24597e-08
Tau Park: 2.4795e-05
Tau Millikan-White: 1.25492e-08
Tau Park: 2.4795e-05
Tau Millikan-White: 1.24597e-08
Tau Park: 2.4795e-05
Tau Millikan-White: 1.25492e-08
Tau Park: 2.4795e-05
Tau Millikan-White: 1.24597e-08
Tau Park: 2.4795e-05
Tau Millikan-White: 1.25492e-08
Tau Park: 2.4795e-05
Tau Millikan-White: 1.24597e-08
Tau Park: 2.4795e-05
Tau Millikan-White: 1.25492e-08
Tau Park: 2.4795e-05
Tau Millikan-White: 1.24597e-08
Tau Park: 2.4795e-05
Tau Millikan-White: 1.25492e-08
Tau Park: 2.4795e-05
Tau Millikan-White: 1.24597e-08
Tau Park: 2.4795e-05
Tau Millikan-White: 1.25492e-08
Tau Park: 2.4795e-05
Tau Millikan-White: 1.24597e-08
Tau Park: 2.4795e-05
Tau Millikan-White: 1.25492e-08
Tau Park: 2.4795e-05
Tau Millikan-White: 1.24597e-08
Tau Park: 2.4795e-05
Tau Millikan-White: 1.25492e-08
Tau Park: 2.4795e-05
Tau Millikan-White: 1.24597e-08
Tau Park: 2.4795e-05
Tau Millikan-White: 1.25492e-08
Tau Park: 2.4795e-05
Tau Millikan-White: 1.24597e-08
Tau Park: 2.4795e-05
Tau Millikan-White: 1.25492e-08
Tau Park: 2.4795e-05
Tau Millikan-White: 1.24597e-08
Tau Park: 2.4795e-05
Tau Millikan-White: 1.25492e-08
Tau Park: 2.4795e-05
Tau Millikan-White: 1.24597e-08
Tau Park: 2.4795e-05
Tau Millikan-White: 1.25492e-08
Tau Park: 2.4795e-05
Tau Millikan-White: 1.24597e-08
Tau Park: 2.4795e-05
Tau Millikan-White: 1.25492e-08
Tau Park: 2.4795e-05
Tau Millikan-White: 1.24597e-08
Tau Park: 2.4795e-05
Tau Millikan-White: 1.25492e-08
Tau Park: 2.4795e-05
Tau Millikan-White: 1.24597e-08
Tau Park: 2.4795e-05
Tau Millikan-White: 1.25492e-08
Tau Park: 2.4795e-05
Tau Millikan-White: 1.24597e-08
Tau Park: 2.4795e-05
Tau Millikan-White: 1.25492e-08
Tau Park: 2.4795e-05
Tau Millikan-White: 1.24597e-08
Tau Park: 2.4795e-05
Tau Millikan-White: 1.25492e-08
Tau Park: 2.4795e-05
Tau Millikan-White: 1.24597e-08
Tau Park: 2.4795e-05
Tau Millikan-White: 1.25492e-08
Tau Park: 2.4795e-05
Tau Millikan-White: 1.24597e-08
Tau Park: 2.4795e-05
Tau Millikan-White: 1.25492e-08
Tau Park: 2.4795e-05
Tau Millikan-White: 1.24597e-08
Tau Park: 2.4795e-05
Tau Millikan-White: 1.25492e-08
Tau Park: 2.4795e-05
Tau Millikan-White: 1.24597e-08
Tau Park: 2.4795e-05
Tau Millikan-White: 1.25492e-08
Tau Park: 2.4795e-05
Tau Millikan-White: 1.24597e-08
Tau Park: 2.4795e-05
Tau Millikan-White: 1.25492e-08
Tau Park: 2.4795e-05
Tau Millikan-White: 1.24597e-08
Tau Park: 2.4795e-05
Tau Millikan-White: 1.25492e-08
Tau Park: 2.4795e-05
Tau Millikan-White: 1.24597e-08
Tau Park: 2.4795e-05
Tau Millikan-White: 1.25492e-08
Tau Park: 2.4795e-05
Tau Millikan-White: 1.24597e-08
Tau Park: 2.4795e-05
Tau Millikan-White: 1.25492e-08
Tau Park: 2.4795e-05
Tau Millikan-White: 1.24597e-08
Tau Park: 2.4795e-05
Tau Millikan-White: 1.25492e-08
Tau Park: 2.4795e-05
Tau Millikan-White: 1.24597e-08
Tau Park: 2.4795e-05
Tau Millikan-White: 1.25492e-08
Tau Park: 2.4795e-05
Tau Millikan-White: 1.24597e-08
Tau Park: 2.4795e-05
Tau Millikan-White: 1.25492e-08
Tau Park: 2.4795e-05
Tau Millikan-White: 1.24597e-08
Tau Park: 2.4795e-05
Tau Millikan-White: 1.25492e-08
Tau Park: 2.4795e-05
Tau Millikan-White: 1.24597e-08
Tau Park: 2.4795e-05
Tau Millikan-White: 1.25492e-08
Tau Park: 2.4795e-05
Tau Millikan-White: 1.24597e-08
Tau Park: 2.4795e-05
Tau Millikan-White: 1.25492e-08
Tau Park: 2.4795e-05
Tau Millikan-White: 1.24597e-08
Tau Park: 2.4795e-05
Tau Millikan-White: 1.25492e-08
Tau Park: 2.4795e-05
Tau Millikan-White: 1.24597e-08
Tau Park: 2.4795e-05
Tau Millikan-White: 1.25492e-08
Tau Park: 2.4795e-05
Tau Millikan-White: 1.24597e-08
Tau Park: 2.4795e-05
Tau Millikan-White: 1.25492e-08
Tau Park: 2.4795e-05
Tau Millikan-White: 1.24597e-08
Tau Park: 2.4795e-05
Tau Millikan-White: 1.25492e-08
Tau Park: 2.4795e-05
Tau Millikan-White: 1.24597e-08
Tau Park: 2.4795e-05
Tau Millikan-White: 1.25492e-08
Tau Park: 2.4795e-05
Tau Millikan-White: 1.24597e-08
Tau Park: 2.4795e-05
Tau Millikan-White: 1.25492e-08
Tau Park: 2.4795e-05
Tau Millikan-White: 1.24597e-08
Tau Park: 2.4795e-05
Tau Millikan-White: 1.25492e-08
Tau Park: 2.4795e-05
Tau Millikan-White: 1.24597e-08
Tau Park: 2.4795e-05
Tau Millikan-White: 1.25492e-08
Tau Park: 2.4795e-05
Tau Millikan-White: 1.24597e-08
Tau Park: 2.4795e-05
Tau Millikan-White: 1.25492e-08
Tau Park: 2.4795e-05
Tau Millikan-White: 1.24597e-08
Tau Park: 2.4795e-05
Tau Millikan-White: 1.25492e-08
Tau Park: 2.4795e-05
Tau Millikan-White: 1.24597e-08
Tau Park: 2.4795e-05
Tau Millikan-White: 1.25492e-08
Tau Park: 2.4795e-05
Tau Millikan-White: 1.24597e-08
Tau Park: 2.4795e-05
Tau Millikan-White: 1.25492e-08
Tau Park: 2.4795e-05
Tau Millikan-White: 1.24597e-08
Tau Park: 2.4795e-05
Tau Millikan-White: 1.25492e-08
Tau Park: 2.4795e-05
Tau Millikan-White: 1.24597e-08
Tau Park: 2.4795e-05
Tau Millikan-White: 1.25492e-08
Tau Park: 2.4795e-05
Tau Millikan-White: 1.24597e-08
Tau Park: 2.4795e-05
Tau Millikan-White: 1.25492e-08
Tau Park: 2.4795e-05
Tau Millikan-White: 1.24597e-08
Tau Park: 2.4795e-05
Tau Millikan-White: 1.25492e-08
Tau Park: 2.4795e-05
Tau Millikan-White: 1.24597e-08
Tau Park: 2.4795e-05
Tau Millikan-White: 1.25492e-08
Tau Park: 2.4795e-05
Tau Millikan-White: 1.24597e-08
Tau Park: 2.4795e-05
Tau Millikan-White: 1.25492e-08
Tau Park: 2.4795e-05
Tau Millikan-White: 1.24597e-08
Tau Park: 2.4795e-05
Tau Millikan-White: 1.25492e-08
Tau Park: 2.4795e-05
Tau Millikan-White: 1.24597e-08
Tau Park: 2.4795e-05
Tau Millikan-White: 1.25492e-08
Tau Park: 2.4795e-05
Tau Millikan-White: 1.24597e-08
Tau Park: 2.4795e-05
Tau Millikan-White: 1.25492e-08
Tau Park: 2.4795e-05
Tau Millikan-White: 1.24597e-08
Tau Park: 2.4795e-05
Tau Millikan-White: 1.25492e-08
Tau Park: 2.4795e-05
Tau Millikan-White: 1.24597e-08
Tau Park: 2.4795e-05
Tau Millikan-White: 1.25492e-08
Tau Park: 2.4795e-05
Tau Millikan-White: 1.24597e-08
Tau Park: 2.4795e-05
Tau Millikan-White: 1.25492e-08
Tau Park: 2.4795e-05
Tau Millikan-White: 1.24597e-08
Tau Park: 2.4795e-05
Tau Millikan-White: 1.25492e-08
Tau Park: 2.4795e-05
Tau Millikan-White: 1.24597e-08
Tau Park: 2.4795e-05
Tau Millikan-White: 1.25492e-08
Tau Park: 2.4795e-05
Tau Millikan-White: 1.24597e-08
Tau Park: 2.4795e-05
Tau Millikan-White: 1.25492e-08
Tau Park: 2.4795e-05
Tau Millikan-White: 1.24597e-08
Tau Park: 2.4795e-05
Tau Millikan-White: 1.25492e-08
Tau Park: 2.4795e-05
Tau Millikan-White: 1.24597e-08
Tau Park: 2.4795e-05
Tau Millikan-White: 1.25492e-08
Tau Park: 2.4795e-05
Tau Millikan-White: 1.24597e-08
Tau Park: 2.4795e-05
Tau Millikan-White: 1.25492e-08
Tau Park: 2.4795e-05
Tau Millikan-White: 1.24597e-08
Tau Park: 2.4795e-05
Tau Millikan-White: 1.25492e-08
Tau Park: 2.4795e-05
Tau Millikan-White: 1.24597e-08
Tau Park: 2.4795e-05
Tau Millikan-White: 1.25492e-08
Tau Park: 2.4795e-05
Tau Millikan-White: 1.24597e-08
Tau Park: 2.4795e-05
Tau Millikan-White: 1.25492e-08
Tau Park: 2.4795e-05
Tau Millikan-White: 1.24597e-08
Tau Park: 2.4795e-05
Tau Millikan-White: 1.25492e-08
Tau Park: 2.4795e-05
Tau Millikan-White: 1.24597e-08
Tau Park: 2.4795e-05
Tau Millikan-White: 1.25492e-08
Tau Park: 2.4795e-05
Tau Millikan-White: 1.24597e-08
Tau Park: 2.4795e-05
Tau Millikan-White: 1.25492e-08
Tau Park: 2.4795e-05
Tau Millikan-White: 1.24597e-08
Tau Park: 2.4795e-05
Tau Millikan-White: 1.25492e-08
Tau Park: 2.4795e-05
Tau Millikan-White: 1.24597e-08
Tau Park: 2.4795e-05
Tau Millikan-White: 1.25492e-08
Tau Park: 2.4795e-05
Tau Millikan-White: 1.24597e-08
Tau Park: 2.4795e-05
Tau Millikan-White: 1.25492e-08
Tau Park: 2.4795e-05
Tau Millikan-White: 1.24597e-08
Tau Park: 2.4795e-05
Tau Millikan-White: 1.25492e-08
Tau Park: 2.4795e-05
Tau Millikan-White: 1.24597e-08
Tau Park: 2.4795e-05
Tau Millikan-White: 1.25492e-08
Tau Park: 2.4795e-05
Tau Millikan-White: 1.24597e-08
Tau Park: 2.4795e-05
Tau Millikan-White: 1.25492e-08
Tau Park: 2.4795e-05
Tau Millikan-White: 1.24597e-08
Tau Park: 2.4795e-05
Tau Millikan-White: 1.25492e-08
Tau Park: 2.4795e-05
Tau Millikan-White: 1.24597e-08
Tau Park: 2.4795e-05
Tau Millikan-White: 1.25492e-08
Tau Park: 2.4795e-05
Tau Millikan-White: 1.24597e-08
Tau Park: 2.4795e-05
Tau Millikan-White: 1.25492e-08
Tau Park: 2.4795e-05
Tau Millikan-White: 1.24597e-08
Tau Park: 2.4795e-05
Tau Millikan-White: 1.25492e-08
Tau Park: 2.4795e-05
Tau Millikan-White: 1.24597e-08
Tau Park: 2.4795e-05
Tau Millikan-White: 1.25492e-08
Tau Park: 2.4795e-05
Tau Millikan-White: 1.24597e-08
Tau Park: 2.4795e-05
Tau Millikan-White: 1.25492e-08
Tau Park: 2.4795e-05
Tau Millikan-White: 1.24597e-08
Tau Park: 2.4795e-05
Tau Millikan-White: 1.25492e-08
Tau Park: 2.4795e-05
Tau Millikan-White: 1.24597e-08
Tau Park: 2.4795e-05
Tau Millikan-White: 1.25492e-08
Tau Park: 2.4795e-05
Tau Millikan-White: 1.24597e-08
Tau Park: 2.4795e-05
Tau Millikan-White: 1.25492e-08
Tau Park: 2.4795e-05
Tau Millikan-White: 1.24597e-08
Tau Park: 2.4795e-05
Tau Millikan-White: 1.25492e-08
Tau Park: 2.4795e-05
Tau Millikan-White: 1.24597e-08
Tau Park: 2.4795e-05
Tau Millikan-White: 1.25492e-08
Tau Park: 2.4795e-05
Tau Millikan-White: 1.24597e-08
Tau Park: 2.4795e-05
Tau Millikan-White: 1.25492e-08
Tau Park: 2.4795e-05
Tau Millikan-White: 1.24597e-08
Tau Park: 2.4795e-05
Tau Millikan-White: 1.25492e-08
Tau Park: 2.4795e-05
Tau Millikan-White: 1.24597e-08
Tau Park: 2.4795e-05
Tau Millikan-White: 1.25492e-08
Tau Park: 2.4795e-05
Tau Millikan-White: 1.24597e-08
Tau Park: 2.4795e-05
Tau Millikan-White: 1.25492e-08
Tau Park: 2.4795e-05
Tau Millikan-White: 1.24597e-08
Tau Park: 2.4795e-05
Tau Millikan-White: 1.25492e-08
Tau Park: 2.4795e-05
Tau Millikan-White: 1.24597e-08
Tau Park: 2.4795e-05
Tau Millikan-White: 1.25492e-08
Tau Park: 2.4795e-05
Tau Millikan-White: 1.24597e-08
Tau Park: 2.4795e-05
Tau Millikan-White: 1.25492e-08
Tau Park: 2.4795e-05
Tau Millikan-White: 1.24597e-08
Tau Park: 2.4795e-05
Tau Millikan-White: 1.25492e-08
Tau Park: 2.4795e-05
Tau Millikan-White: 1.24597e-08
Tau Park: 2.4795e-05
Tau Millikan-White: 1.25492e-08
Tau Park: 2.4795e-05
Tau Millikan-White: 1.24597e-08
Tau Park: 2.4795e-05
Tau Millikan-White: 1.25492e-08
Tau Park: 2.4795e-05
Tau Millikan-White: 1.24597e-08
Tau Park: 2.4795e-05
Tau Millikan-White: 1.25492e-08
Tau Park: 2.4795e-05
Tau Millikan-White: 1.24597e-08
Tau Park: 2.4795e-05
Tau Millikan-White: 1.25492e-08
Tau Park: 2.4795e-05
Tau Millikan-White: 1.24597e-08
Tau Park: 2.4795e-05
Tau Millikan-White: 1.25492e-08
Tau Park: 2.4795e-05
Tau Millikan-White: 1.24597e-08
Tau Park: 2.4795e-05
Tau Millikan-White: 1.25492e-08
Tau Park: 2.4795e-05
Tau Millikan-White: 1.24597e-08
Tau Park: 2.4795e-05
Tau Millikan-White: 1.25492e-08
Tau Park: 2.4795e-05
Tau Millikan-White: 1.24597e-08
Tau Park: 2.4795e-05
Tau Millikan-White: 1.25492e-08
Tau Park: 2.4795e-05
Tau Millikan-White: 1.24597e-08
Tau Park: 2.4795e-05
Tau Millikan-White: 1.25492e-08
Tau Park: 2.4795e-05
Tau Millikan-White: 1.24597e-08
Tau Park: 2.4795e-05
Tau Millikan-White: 1.25492e-08
Tau Park: 2.4795e-05
Tau Millikan-White: 1.24597e-08
Tau Park: 2.4795e-05
Tau Millikan-White: 1.25492e-08
Tau Park: 2.4795e-05
Tau Millikan-White: 1.24597e-08
Tau Park: 2.4795e-05
Tau Millikan-White: 1.25492e-08
Tau Park: 2.4795e-05
Tau Millikan-White: 1.24597e-08
Tau Park: 2.4795e-05
Tau Millikan-White: 1.25492e-08
Tau Park: 2.4795e-05
Tau Millikan-White: 1.24597e-08
Tau Park: 2.4795e-05
Tau Millikan-White: 1.25492e-08
Tau Park: 2.4795e-05
Tau Millikan-White: 1.24597e-08
Tau Park: 2.4795e-05
Tau Millikan-White: 1.25492e-08
Tau Park: 2.4795e-05
Tau Millikan-White: 1.24597e-08
Tau Park: 2.4795e-05
Tau Millikan-White: 1.25492e-08
Tau Park: 2.4795e-05
Tau Millikan-White: 1.24597e-08
Tau Park: 2.4795e-05
Tau Millikan-White: 1.25492e-08
Tau Park: 2.4795e-05
Tau Millikan-White: 1.24597e-08
Tau Park: 2.4795e-05
Tau Millikan-White: 1.25492e-08
Tau Park: 2.4795e-05
Tau Millikan-White: 1.24597e-08
Tau Park: 2.4795e-05
Tau Millikan-White: 1.25492e-08
Tau Park: 2.4795e-05
Tau Millikan-White: 1.24597e-08
Tau Park: 2.4795e-05
Tau Millikan-White: 1.25492e-08
Tau Park: 2.4795e-05
Tau Millikan-White: 1.24597e-08
Tau Park: 2.4795e-05
Tau Millikan-White: 1.25492e-08
Tau Park: 2.4795e-05
Tau Millikan-White: 1.24597e-08
Tau Park: 2.4795e-05
Tau Millikan-White: 1.25492e-08
Tau Park: 2.4795e-05
Tau Millikan-White: 1.24597e-08
Tau Park: 2.4795e-05
Tau Millikan-White: 1.25492e-08
Tau Park: 2.4795e-05
Tau Millikan-White: 1.24597e-08
Tau Park: 2.4795e-05
Tau Millikan-White: 1.25492e-08
Tau Park: 2.4795e-05
Tau Millikan-White: 1.24597e-08
Tau Park: 2.4795e-05
Tau Millikan-White: 1.25492e-08
Tau Park: 2.4795e-05
Tau Millikan-White: 1.24597e-08
Tau Park: 2.4795e-05
Tau Millikan-White: 1.25492e-08
Tau Park: 2.4795e-05
Tau Millikan-White: 1.24597e-08
Tau Park: 2.4795e-05
Tau Millikan-White: 1.25492e-08
Tau Park: 2.4795e-05
Tau Millikan-White: 1.24597e-08
Tau Park: 2.4795e-05
Tau Millikan-White: 1.25492e-08
Tau Park: 2.4795e-05
Tau Millikan-White: 1.24597e-08
Tau Park: 2.4795e-05
Tau Millikan-White: 1.25492e-08
Tau Park: 2.4795e-05
Tau Millikan-White: 1.24597e-08
Tau Park: 2.4795e-05
Tau Millikan-White: 1.25492e-08
Tau Park: 2.4795e-05
Tau Millikan-White: 1.24597e-08
Tau Park: 2.4795e-05
Tau Millikan-White: 1.25492e-08
Tau Park: 2.4795e-05
Tau Millikan-White: 1.24597e-08
Tau Park: 2.4795e-05
Tau Millikan-White: 1.25492e-08
Tau Park: 2.4795e-05
Tau Millikan-White: 1.24597e-08
Tau Park: 2.4795e-05
Tau Millikan-White: 1.25492e-08
Tau Park: 2.4795e-05
Tau Millikan-White: 1.24597e-08
Tau Park: 2.4795e-05
Tau Millikan-White: 1.25492e-08
Tau Park: 2.4795e-05
Tau Millikan-White: 1.24597e-08
Tau Park: 2.4795e-05
Tau Millikan-White: 1.25492e-08
Tau Park: 2.4795e-05
Tau Millikan-White: 1.24597e-08
Tau Park: 2.4795e-05
Tau Millikan-White: 1.25492e-08
Tau Park: 2.4795e-05
Tau Millikan-White: 1.24597e-08
Tau Park: 2.4795e-05
Tau Millikan-White: 1.25492e-08
Tau Park: 2.4795e-05
Tau Millikan-White: 1.24597e-08
Tau Park: 2.4795e-05
Tau Millikan-White: 1.25492e-08
Tau Park: 2.4795e-05
Tau Millikan-White: 1.24597e-08
Tau Park: 2.4795e-05
Tau Millikan-White: 1.25492e-08
Tau Park: 2.4795e-05
Tau Millikan-White: 1.24597e-08
Tau Park: 2.4795e-05
Tau Millikan-White: 1.25492e-08
Tau Park: 2.4795e-05
Tau Millikan-White: 1.24597e-08
Tau Park: 2.4795e-05
Tau Millikan-White: 1.25492e-08
Tau Park: 2.4795e-05
Tau Millikan-White: 1.24597e-08
Tau Park: 2.4795e-05
Tau Millikan-White: 1.25492e-08
Tau Park: 2.4795e-05
Tau Millikan-White: 1.24597e-08
Tau Park: 2.4795e-05
Tau Millikan-White: 1.25492e-08
Tau Park: 2.4795e-05
Tau Millikan-White: 1.24597e-08
Tau Park: 2.4795e-05
Tau Millikan-White: 1.25492e-08
Tau Park: 2.4795e-05
Tau Millikan-White: 1.24597e-08
Tau Park: 2.4795e-05
Tau Millikan-White: 1.25492e-08
Tau Park: 2.4795e-05
Tau Millikan-White: 1.24597e-08
Tau Park: 2.4795e-05
Tau Millikan-White: 1.25492e-08
Tau Park: 2.4795e-05
Tau Millikan-White: 1.24597e-08
Tau Park: 2.4795e-05
Tau Millikan-White: 1.25492e-08
Tau Park: 2.4795e-05
Tau Millikan-White: 1.24597e-08
Tau Park: 2.4795e-05
Tau Millikan-White: 1.25492e-08
Tau Park: 2.4795e-05
Tau Millikan-White: 1.24597e-08
Tau Park: 2.4795e-05
Tau Millikan-White: 1.25492e-08
Tau Park: 2.4795e-05
Tau Millikan-White: 1.24597e-08
Tau Park: 2.4795e-05
Tau Millikan-White: 1.25492e-08
Tau Park: 2.4795e-05
Tau Millikan-White: 1.24597e-08
Tau Park: 2.4795e-05
Tau Millikan-White: 1.25492e-08
Tau Park: 2.4795e-05
Tau Millikan-White: 1.24597e-08
Tau Park: 2.4795e-05
Tau Millikan-White: 1.25492e-08
Tau Park: 2.4795e-05
Tau Millikan-White: 1.24597e-08
Tau Park: 2.4795e-05
Tau Millikan-White: 1.25492e-08
Tau Park: 2.4795e-05
Tau Millikan-White: 1.24597e-08
Tau Park: 2.4795e-05
Tau Millikan-White: 1.25492e-08
Tau Park: 2.4795e-05
Tau Millikan-White: 1.24597e-08
Tau Park: 2.4795e-05
Tau Millikan-White: 1.25492e-08
Tau Park: 2.4795e-05
Tau Millikan-White: 1.24597e-08
Tau Park: 2.4795e-05
Tau Millikan-White: 1.25492e-08
Tau Park: 2.4795e-05
Tau Millikan-White: 1.24597e-08
Tau Park: 2.4795e-05
Tau Millikan-White: 1.25492e-08
Tau Park: 2.4795e-05
Tau Millikan-White: 1.24597e-08
Tau Park: 2.4795e-05
Tau Millikan-White: 1.25492e-08
Tau Park: 2.4795e-05
Tau Millikan-White: 1.24597e-08
Tau Park: 2.4795e-05
Tau Millikan-White: 1.25492e-08
Tau Park: 2.4795e-05
Tau Millikan-White: 1.24597e-08
Tau Park: 2.4795e-05
Tau Millikan-White: 1.25492e-08
Tau Park: 2.4795e-05
Tau Millikan-White: 1.24597e-08
Tau Park: 2.4795e-05
Tau Millikan-White: 1.25492e-08
Tau Park: 2.4795e-05
Tau Millikan-White: 1.24597e-08
Tau Park: 2.4795e-05
Tau Millikan-White: 1.25492e-08
Tau Park: 2.4795e-05
Tau Millikan-White: 1.24597e-08
Tau Park: 2.4795e-05
Tau Millikan-White: 1.25492e-08
Tau Park: 2.4795e-05
Tau Millikan-White: 1.24597e-08
Tau Park: 2.4795e-05
Tau Millikan-White: 1.25492e-08
Tau Park: 2.4795e-05
Tau Millikan-White: 1.24597e-08
Tau Park: 2.4795e-05
Tau Millikan-White: 1.25492e-08
Tau Park: 2.4795e-05
Tau Millikan-White: 1.24597e-08
Tau Park: 2.4795e-05
Tau Millikan-White: 1.25492e-08
Tau Park: 2.4795e-05
Tau Millikan-White: 1.24597e-08
Tau Park: 2.4795e-05
Tau Millikan-White: 1.25492e-08
Tau Park: 2.4795e-05
Tau Millikan-White: 1.24597e-08
Tau Park: 2.4795e-05
Tau Millikan-White: 1.25492e-08
Tau Park: 2.4795e-05
Tau Millikan-White: 1.24597e-08
Tau Park: 2.4795e-05
Tau Millikan-White: 1.25492e-08
Tau Park: 2.4795e-05
Tau Millikan-White: 1.24597e-08
Tau Park: 2.4795e-05
Tau Millikan-White: 1.25492e-08
Tau Park: 2.4795e-05
Tau Millikan-White: 1.24597e-08
Tau Park: 2.4795e-05
Tau Millikan-White: 1.25492e-08
Tau Park: 2.4795e-05
Tau Millikan-White: 1.24597e-08
Tau Park: 2.4795e-05
Tau Millikan-White: 1.25492e-08
Tau Park: 2.4795e-05
Tau Millikan-White: 1.24597e-08
Tau Park: 2.4795e-05
Tau Millikan-White: 1.25492e-08
Tau Park: 2.4795e-05
Tau Millikan-White: 1.24597e-08
Tau Park: 2.4795e-05
Tau Millikan-White: 1.25492e-08
Tau Park: 2.4795e-05
Tau Millikan-White: 1.24597e-08
Tau Park: 2.4795e-05
Tau Millikan-White: 1.25492e-08
Tau Park: 2.4795e-05
Tau Millikan-White: 1.24597e-08
Tau Park: 2.4795e-05
Tau Millikan-White: 1.25492e-08
Tau Park: 2.4795e-05
Tau Millikan-White: 1.24597e-08
Tau Park: 2.4795e-05
Tau Millikan-White: 1.25492e-08
Tau Park: 2.4795e-05
Tau Millikan-White: 1.24597e-08
Tau Park: 2.4795e-05
Tau Millikan-White: 1.25492e-08
Tau Park: 2.4795e-05
Tau Millikan-White: 1.24597e-08
Tau Park: 2.4795e-05
Tau Millikan-White: 1.25492e-08
Tau Park: 2.4795e-05
Tau Millikan-White: 1.24597e-08
Tau Park: 2.4795e-05
Tau Millikan-White: 1.25492e-08
Tau Park: 2.4795e-05
Tau Millikan-White: 1.24597e-08
Tau Park: 2.4795e-05
Tau Millikan-White: 1.25492e-08
Tau Park: 2.4795e-05
Tau Millikan-White: 1.24597e-08
Tau Park: 2.4795e-05
Tau Millikan-White: 1.25492e-08
Tau Park: 2.4795e-05
Tau Millikan-White: 1.24597e-08
Tau Park: 2.4795e-05
Tau Millikan-White: 1.25492e-08
Tau Park: 2.4795e-05
Tau Millikan-White: 1.24597e-08
Tau Park: 2.4795e-05
Tau Millikan-White: 1.25492e-08
Tau Park: 2.4795e-05
Tau Millikan-White: 1.24597e-08
Tau Park: 2.4795e-05
Tau Millikan-White: 1.25492e-08
Tau Park: 2.4795e-05
Tau Millikan-White: 1.24597e-08
Tau Park: 2.4795e-05
Tau Millikan-White: 1.25492e-08
Tau Park: 2.4795e-05
Tau Millikan-White: 1.24597e-08
Tau Park: 2.4795e-05
Tau Millikan-White: 1.25492e-08
Tau Park: 2.4795e-05
Tau Millikan-White: 1.24597e-08
Tau Park: 2.4795e-05
Tau Millikan-White: 1.25492e-08
Tau Park: 2.4795e-05
Tau Millikan-White: 1.24597e-08
Tau Park: 2.4795e-05
Tau Millikan-White: 1.25492e-08
Tau Park: 2.4795e-05
Tau Millikan-White: 1.24597e-08
Tau Park: 2.4795e-05
Tau Millikan-White: 1.25492e-08
Tau Park: 2.4795e-05
Tau Millikan-White: 1.24597e-08
Tau Park: 2.4795e-05
Tau Millikan-White: 1.25492e-08
Tau Park: 2.4795e-05
Tau Millikan-White: 1.24597e-08
Tau Park: 2.4795e-05
Tau Millikan-White: 1.25492e-08
Tau Park: 2.4795e-05
Tau Millikan-White: 1.24597e-08
Tau Park: 2.4795e-05
Tau Millikan-White: 1.25492e-08
Tau Park: 2.4795e-05
Tau Millikan-White: 1.24597e-08
Tau Park: 2.4795e-05
Tau Millikan-White: 1.25492e-08
Tau Park: 2.4795e-05
Tau Millikan-White: 1.24597e-08
Tau Park: 2.4795e-05
Tau Millikan-White: 1.25492e-08
Tau Park: 2.4795e-05
Tau Millikan-White: 1.24597e-08
Tau Park: 2.4795e-05
Tau Millikan-White: 1.25492e-08
Tau Park: 2.4795e-05
Tau Millikan-White: 1.24597e-08
Tau Park: 2.4795e-05
Tau Millikan-White: 1.25492e-08
Tau Park: 2.4795e-05
Tau Millikan-White: 1.24597e-08
Tau Park: 2.4795e-05
Tau Millikan-White: 1.25492e-08
Tau Park: 2.4795e-05
Tau Millikan-White: 1.24597e-08
Tau Park: 2.4795e-05
Tau Millikan-White: 1.25492e-08
Tau Park: 2.4795e-05
Tau Millikan-White: 1.24597e-08
Tau Park: 2.4795e-05
Tau Millikan-White: 1.25492e-08
Tau Park: 2.4795e-05
Tau Millikan-White: 1.24597e-08
Tau Park: 2.4795e-05
Tau Millikan-White: 1.25492e-08
Tau Park: 2.4795e-05
Tau Millikan-White: 1.24597e-08
Tau Park: 2.4795e-05
Tau Millikan-White: 1.25492e-08
Tau Park: 2.4795e-05
Tau Millikan-White: 1.24597e-08
Tau Park: 2.4795e-05
Tau Millikan-White: 1.25492e-08
Tau Park: 2.4795e-05
Tau Millikan-White: 1.24597e-08
Tau Park: 2.4795e-05
Tau Millikan-White: 1.25492e-08
Tau Park: 2.4795e-05
Tau Millikan-White: 1.24597e-08
Tau Park: 2.4795e-05
Tau Millikan-White: 1.25492e-08
Tau Park: 2.4795e-05
Tau Millikan-White: 1.24597e-08
Tau Park: 2.4795e-05
Tau Millikan-White: 1.25492e-08
Tau Park: 2.4795e-05
Tau Millikan-White: 1.24597e-08
Tau Park: 2.4795e-05
Tau Millikan-White: 1.25492e-08
Tau Park: 2.4795e-05
Tau Millikan-White: 1.24597e-08
Tau Park: 2.4795e-05
Tau Millikan-White: 1.25492e-08
Tau Park: 2.4795e-05
Tau Millikan-White: 1.24597e-08
Tau Park: 2.4795e-05
Tau Millikan-White: 1.25492e-08
Tau Park: 2.4795e-05
Tau Millikan-White: 1.24597e-08
Tau Park: 2.4795e-05
Tau Millikan-White: 1.25492e-08
Tau Park: 2.4795e-05
Tau Millikan-White: 1.24597e-08
Tau Park: 2.4795e-05
Tau Millikan-White: 1.25492e-08
Tau Park: 2.4795e-05
Tau Millikan-White: 1.24597e-08
Tau Park: 2.4795e-05
Tau Millikan-White: 1.25492e-08
Tau Park: 2.4795e-05
Tau Millikan-White: 1.24597e-08
Tau Park: 2.4795e-05
Tau Millikan-White: 1.25492e-08
Tau Park: 2.4795e-05
Tau Millikan-White: 1.24597e-08
Tau Park: 2.4795e-05
Tau Millikan-White: 1.25492e-08
Tau Park: 2.4795e-05
Tau Millikan-White: 1.24597e-08
Tau Park: 2.4795e-05
Tau Millikan-White: 1.25492e-08
Tau Park: 2.4795e-05
Tau Millikan-White: 1.24597e-08
Tau Park: 2.4795e-05
Tau Millikan-White: 1.25492e-08
Tau Park: 2.4795e-05
Tau Millikan-White: 1.24597e-08
Tau Park: 2.4795e-05
Tau Millikan-White: 1.25492e-08
Tau Park: 2.4795e-05
Tau Millikan-White: 1.24597e-08
Tau Park: 2.4795e-05
Tau Millikan-White: 1.25492e-08
Tau Park: 2.4795e-05
Tau Millikan-White: 1.24597e-08
Tau Park: 2.4795e-05
Tau Millikan-White: 1.25492e-08
Tau Park: 2.4795e-05
Tau Millikan-White: 1.24597e-08
Tau Park: 2.4795e-05
Tau Millikan-White: 1.25492e-08
Tau Park: 2.4795e-05
Tau Millikan-White: 1.24597e-08
Tau Park: 2.4795e-05
Tau Millikan-White: 1.25492e-08
Tau Park: 2.4795e-05
Tau Millikan-White: 1.24597e-08
Tau Park: 2.4795e-05
Tau Millikan-White: 1.25492e-08
Tau Park: 2.4795e-05
Tau Millikan-White: 1.24597e-08
Tau Park: 2.4795e-05
Tau Millikan-White: 1.25492e-08
Tau Park: 2.4795e-05
Tau Millikan-White: 1.24597e-08
Tau Park: 2.4795e-05
Tau Millikan-White: 1.25492e-08
Tau Park: 2.4795e-05
Tau Millikan-White: 1.24597e-08
Tau Park: 2.4795e-05
Tau Millikan-White: 1.25492e-08
Tau Park: 2.4795e-05
[...]
Tau Park: 2.47664e-05
Tau Millikan-White: 1.14249e-08
Tau Park: 2.47664e-05
Tau Millikan-White: 1.14779e-08
Tau Park: 2.47664e-05
Tau Millikan-White: 1.14249e-08
Tau Park: 2.47664e-05
Tau Millikan-White: 1.14779e-08
Tau Park: 2.47664e-05
Tau Millikan-White: 1.14249e-08
Tau Park: 2.47664e-05
Tau Millikan-White: 1.14779e-08
Tau Park: 2.47664e-05
Tau Millikan-White: 1.14249e-08
Tau Park: 2.47664e-05
Tau Millikan-White: 1.14779e-08
Tau Park: 2.47664e-05
Tau Millikan-White: 1.14249e-08
Tau Park: 2.47664e-05
Tau Millikan-White: 1.14779e-08
Tau Park: 2.47664e-05
Tau Millikan-White: 1.14249e-08
Tau Park: 2.47664e-05
Tau Millikan-White: 1.14779e-08
Tau Park: 2.47664e-05
Tau Millikan-White: 1.14249e-08
Tau Park: 2.47664e-05
Tau Millikan-White: 1.14779e-08
Tau Park: 2.47664e-05
Tau Millikan-White: 1.14249e-08
Tau Park: 2.47664e-05
Tau Millikan-White: 1.14779e-08
Tau Park: 2.47664e-05
Tau Millikan-White: 1.14249e-08
Tau Park: 2.47664e-05
Tau Millikan-White: 1.14779e-08
Tau Park: 2.47664e-05
Tau Millikan-White: 1.14249e-08
Tau Park: 2.47664e-05
Tau Millikan-White: 1.14779e-08
Tau Park: 2.47664e-05
Tau Millikan-White: 1.14249e-08
Tau Park: 2.47664e-05
Tau Millikan-White: 1.14779e-08
Tau Park: 2.47664e-05
Tau Millikan-White: 1.14249e-08
Tau Park: 2.47664e-05
Tau Millikan-White: 1.14779e-08
Tau Park: 2.47664e-05
Tau Millikan-White: 1.14249e-08
Tau Park: 2.47664e-05
Tau Millikan-White: 1.14779e-08
Tau Park: 2.47664e-05
Tau Millikan-White: 1.14249e-08
Tau Park: 2.47664e-05
Tau Millikan-White: 1.14779e-08
Tau Park: 2.47664e-05
Tau Millikan-White: 1.14249e-08
Tau Park: 2.47664e-05
Tau Millikan-White: 1.14779e-08
Tau Park: 2.47664e-05
Tau Millikan-White: 1.14249e-08
Tau Park: 2.47664e-05
Tau Millikan-White: 1.14779e-08
Tau Park: 2.47664e-05
Tau Millikan-White: 1.14249e-08
Tau Park: 2.47664e-05
Tau Millikan-White: 1.14779e-08
Tau Park: 2.47664e-05
Tau Millikan-White: 1.14249e-08
Tau Park: 2.47664e-05
Tau Millikan-White: 1.14779e-08
Tau Park: 2.47664e-05
Tau Millikan-White: 1.14249e-08
Tau Park: 2.47664e-05
Tau Millikan-White: 1.14779e-08
Tau Park: 2.47664e-05
Tau Millikan-White: 1.14249e-08
Tau Park: 2.47664e-05
Tau Millikan-White: 1.14779e-08
Tau Park: 2.47664e-05
Tau Millikan-White: 1.14249e-08
Tau Park: 2.47664e-05
Tau Millikan-White: 1.14779e-08
Tau Park: 2.47664e-05
Tau Millikan-White: 1.14249e-08
Tau Park: 2.47664e-05
Tau Millikan-White: 1.14779e-08
Tau Park: 2.47664e-05
Tau Millikan-White: 1.14249e-08
Tau Park: 2.47664e-05
Tau Millikan-White: 1.14779e-08
Tau Park: 2.47664e-05
Tau Millikan-White: 1.14249e-08
Tau Park: 2.47664e-05
Tau Millikan-White: 1.14779e-08
Tau Park: 2.47664e-05
Tau Millikan-White: 1.14249e-08
Tau Park: 2.47664e-05
Tau Millikan-White: 1.14779e-08
Tau Park: 2.47664e-05
Tau Millikan-White: 1.14249e-08
Tau Park: 2.47664e-05
Tau Millikan-White: 1.14779e-08
Tau Park: 2.47664e-05
Tau Millikan-White: 1.14249e-08
Tau Park: 2.47664e-05
Tau Millikan-White: 1.14779e-08
Tau Park: 2.47664e-05
Tau Millikan-White: 1.14249e-08
Tau Park: 2.47664e-05
Tau Millikan-White: 1.14779e-08
Tau Park: 2.47664e-05
Tau Millikan-White: 1.14249e-08
Tau Park: 2.47664e-05
Tau Millikan-White: 1.14779e-08
Tau Park: 2.47664e-05
Tau Millikan-White: 1.14249e-08
Tau Park: 2.47664e-05
Tau Millikan-White: 1.14779e-08
Tau Park: 2.47664e-05
Tau Millikan-White: 1.14249e-08
Tau Park: 2.47664e-05
Tau Millikan-White: 1.14779e-08
Tau Park: 2.47664e-05
Tau Millikan-White: 1.14249e-08
Tau Park: 2.47664e-05
Tau Millikan-White: 1.14779e-08
Tau Park: 2.47664e-05
Tau Millikan-White: 1.14249e-08
Tau Park: 2.47664e-05
Tau Millikan-White: 1.14779e-08
Tau Park: 2.47664e-05
Tau Millikan-White: 1.14249e-08
Tau Park: 2.47664e-05
Tau Millikan-White: 1.14779e-08
Tau Park: 2.47664e-05
Tau Millikan-White: 1.14249e-08
Tau Park: 2.47664e-05
Tau Millikan-White: 1.14779e-08
Tau Park: 2.47664e-05
Tau Millikan-White: 1.14249e-08
Tau Park: 2.47664e-05
Tau Millikan-White: 1.14779e-08
Tau Park: 2.47664e-05
Tau Millikan-White: 1.14249e-08
Tau Park: 2.47664e-05
Tau Millikan-White: 1.14779e-08
Tau Park: 2.47664e-05
Tau Millikan-White: 1.14249e-08
Tau Park: 2.47664e-05
Tau Millikan-White: 1.14779e-08
Tau Park: 2.47664e-05
Tau Millikan-White: 1.14249e-08
Tau Park: 2.47664e-05
Tau Millikan-White: 1.14779e-08
Tau Park: 2.47664e-05
Tau Millikan-White: 1.14249e-08
Tau Park: 2.47664e-05
Tau Millikan-White: 1.14779e-08
Tau Park: 2.47664e-05
Tau Millikan-White: 1.14249e-08
Tau Park: 2.47664e-05
Tau Millikan-White: 1.14779e-08
Tau Park: 2.47664e-05
Tau Millikan-White: 1.14249e-08
Tau Park: 2.47664e-05
Tau Millikan-White: 1.14779e-08
Tau Park: 2.47664e-05
Tau Millikan-White: 1.14249e-08
Tau Park: 2.47664e-05
Tau Millikan-White: 1.14779e-08
Tau Park: 2.47664e-05
Tau Millikan-White: 1.14249e-08
Tau Park: 2.47664e-05
Tau Millikan-White: 1.14779e-08
Tau Park: 2.47664e-05
Tau Millikan-White: 1.14249e-08
Tau Park: 2.47664e-05
Tau Millikan-White: 1.14779e-08
Tau Park: 2.47664e-05
Tau Millikan-White: 1.14249e-08
Tau Park: 2.47664e-05
Tau Millikan-White: 1.14779e-08
Tau Park: 2.47664e-05
Tau Millikan-White: 1.14249e-08
Tau Park: 2.47664e-05
Tau Millikan-White: 1.14779e-08
Tau Park: 2.47664e-05
Tau Millikan-White: 1.14249e-08
Tau Park: 2.47664e-05
Tau Millikan-White: 1.14779e-08
Tau Park: 2.47664e-05
Tau Millikan-White: 1.14249e-08
Tau Park: 2.47664e-05
Tau Millikan-White: 1.14779e-08
Tau Park: 2.47664e-05
Tau Millikan-White: 1.14249e-08
Tau Park: 2.47664e-05
Tau Millikan-White: 1.14779e-08
Tau Park: 2.47664e-05
Tau Millikan-White: 1.14249e-08
Tau Park: 2.47664e-05
Tau Millikan-White: 1.14779e-08
Tau Park: 2.47664e-05
Tau Millikan-White: 1.14249e-08
Tau Park: 2.47664e-05
Tau Millikan-White: 1.14779e-08
Tau Park: 2.47664e-05
Tau Millikan-White: 1.14249e-08
Tau Park: 2.47664e-05
Tau Millikan-White: 1.14779e-08
Tau Park: 2.47664e-05
Tau Millikan-White: 1.14249e-08
Tau Park: 2.47664e-05
Tau Millikan-White: 1.14779e-08
Tau Park: 2.47664e-05
Tau Millikan-White: 1.14249e-08
Tau Park: 2.47664e-05
Tau Millikan-White: 1.14779e-08
Tau Park: 2.47664e-05
Tau Millikan-White: 1.14249e-08
Tau Park: 2.47664e-05
Tau Millikan-White: 1.14779e-08
Tau Park: 2.47664e-05
Tau Millikan-White: 1.14249e-08
Tau Park: 2.47664e-05
Tau Millikan-White: 1.14779e-08
Tau Park: 2.47664e-05
Tau Millikan-White: 1.14249e-08
Tau Park: 2.47664e-05
Tau Millikan-White: 1.14779e-08
Tau Park: 2.47664e-05
Tau Millikan-White: 1.14249e-08
Tau Park: 2.47664e-05
Tau Millikan-White: 1.14779e-08
Tau Park: 2.47664e-05
Tau Millikan-White: 1.14249e-08
Tau Park: 2.47664e-05
Tau Millikan-White: 1.14779e-08
Tau Park: 2.47664e-05
Tau Millikan-White: 1.14249e-08
Tau Park: 2.47664e-05
Tau Millikan-White: 1.14779e-08
Tau Park: 2.47664e-05
Tau Millikan-White: 1.14249e-08
Tau Park: 2.47664e-05
Tau Millikan-White: 1.14779e-08
Tau Park: 2.47664e-05
Tau Millikan-White: 1.14249e-08
Tau Park: 2.47664e-05
Tau Millikan-White: 1.14779e-08
Tau Park: 2.47664e-05
Tau Millikan-White: 1.14249e-08
Tau Park: 2.47664e-05
Tau Millikan-White: 1.14779e-08
Tau Park: 2.47664e-05
Tau Millikan-White: 1.14249e-08
Tau Park: 2.47664e-05
Tau Millikan-White: 1.14779e-08
Tau Park: 2.47664e-05
Tau Millikan-White: 1.14249e-08
Tau Park: 2.47664e-05
Tau Millikan-White: 1.14779e-08
Tau Park: 2.47664e-05
Tau Millikan-White: 1.14249e-08
Tau Park: 2.47664e-05
Tau Millikan-White: 1.14779e-08
Tau Park: 2.47664e-05
Tau Millikan-White: 1.14249e-08
Tau Park: 2.47664e-05
Tau Millikan-White: 1.14779e-08
Tau Park: 2.47664e-05
Tau Millikan-White: 1.14249e-08
Tau Park: 2.47664e-05
Tau Millikan-White: 1.14779e-08
Tau Park: 2.47664e-05
Tau Millikan-White: 1.14249e-08
Tau Park: 2.47664e-05
Tau Millikan-White: 1.14779e-08
Tau Park: 2.47664e-05
Tau Millikan-White: 1.14249e-08
Tau Park: 2.47664e-05
Tau Millikan-White: 1.14779e-08
Tau Park: 2.47664e-05
Tau Millikan-White: 1.14249e-08
Tau Park: 2.47664e-05
Tau Millikan-White: 1.14779e-08
Tau Park: 2.47664e-05
Tau Millikan-White: 1.14249e-08
Tau Park: 2.47664e-05
Tau Millikan-White: 1.14779e-08
Tau Park: 2.47664e-05
Tau Millikan-White: 1.14249e-08
Tau Park: 2.47664e-05
Tau Millikan-White: 1.14779e-08
Tau Park: 2.47664e-05
Tau Millikan-White: 1.14249e-08
Tau Park: 2.47664e-05
Tau Millikan-White: 1.14779e-08
Tau Park: 2.47664e-05
Tau Millikan-White: 1.14249e-08
Tau Park: 2.47664e-05
Tau Millikan-White: 1.14779e-08
Tau Park: 2.47664e-05
Tau Millikan-White: 1.14249e-08
Tau Park: 2.47664e-05
Tau Millikan-White: 1.14779e-08
Tau Park: 2.47664e-05
Tau Millikan-White: 1.14249e-08
Tau Park: 2.47664e-05
Tau Millikan-White: 1.14779e-08
Tau Park: 2.47664e-05
Tau Millikan-White: 1.14249e-08
Tau Park: 2.47664e-05
Tau Millikan-White: 1.14779e-08
Tau Park: 2.47664e-05
Tau Millikan-White: 1.14249e-08
Tau Park: 2.47664e-05
Tau Millikan-White: 1.14779e-08
Tau Park: 2.47664e-05
Tau Millikan-White: 1.14249e-08
Tau Park: 2.47664e-05
Tau Millikan-White: 1.14779e-08
Tau Park: 2.47664e-05
Tau Millikan-White: 1.14249e-08
Tau Park: 2.47664e-05
Tau Millikan-White: 1.14779e-08
Tau Park: 2.47664e-05
Tau Millikan-White: 1.14249e-08
Tau Park: 2.47664e-05
Tau Millikan-White: 1.14779e-08
Tau Park: 2.47664e-05
Tau Millikan-White: 1.14249e-08
Tau Park: 2.47664e-05
Tau Millikan-White: 1.14779e-08
Tau Park: 2.47664e-05
Tau Millikan-White: 1.14249e-08
Tau Park: 2.47664e-05
Tau Millikan-White: 1.14779e-08
Tau Park: 2.47664e-05
Tau Millikan-White: 1.14249e-08
Tau Park: 2.47664e-05
Tau Millikan-White: 1.14779e-08
Tau Park: 2.47664e-05
Tau Millikan-White: 1.14249e-08
Tau Park: 2.47664e-05
Tau Millikan-White: 1.14779e-08
Tau Park: 2.47664e-05
Tau Millikan-White: 1.14249e-08
Tau Park: 2.47664e-05
Tau Millikan-White: 1.14779e-08
Tau Park: 2.47664e-05
Tau Millikan-White: 1.14249e-08
Tau Park: 2.47664e-05
Tau Millikan-White: 1.14779e-08
Tau Park: 2.47664e-05
Tau Millikan-White: 1.14249e-08
Tau Park: 2.47664e-05
Tau Millikan-White: 1.14779e-08
Tau Park: 2.47664e-05
Tau Millikan-White: 1.14249e-08
Tau Park: 2.47664e-05
Tau Millikan-White: 1.14779e-08
Tau Park: 2.47664e-05
Tau Millikan-White: 1.14249e-08
Tau Park: 2.47664e-05
Tau Millikan-White: 1.14779e-08
Tau Park: 2.47664e-05
Tau Millikan-White: 1.14249e-08
Tau Park: 2.47664e-05
Tau Millikan-White: 1.14779e-08
Tau Park: 2.47664e-05
Tau Millikan-White: 1.14249e-08
Tau Park: 2.47664e-05
Tau Millikan-White: 1.14779e-08
Tau Park: 2.47664e-05
Tau Millikan-White: 1.14249e-08
Tau Park: 2.47664e-05
Tau Millikan-White: 1.14779e-08
Tau Park: 2.47664e-05
Tau Millikan-White: 1.14249e-08
Tau Park: 2.47664e-05
Tau Millikan-White: 1.14779e-08
Tau Park: 2.47664e-05
Tau Millikan-White: 1.14249e-08
Tau Park: 2.47664e-05
Tau Millikan-White: 1.14779e-08
Tau Park: 2.47664e-05
Tau Millikan-White: 1.14249e-08
Tau Park: 2.47664e-05
Tau Millikan-White: 1.14779e-08
Tau Park: 2.47664e-05
Tau Millikan-White: 1.14249e-08
Tau Park: 2.47664e-05
Tau Millikan-White: 1.14779e-08
Tau Park: 2.47664e-05
Tau Millikan-White: 1.14249e-08
Tau Park: 2.47664e-05
Tau Millikan-White: 1.14779e-08
Tau Park: 2.47664e-05
Tau Millikan-White: 1.14249e-08
Tau Park: 2.47664e-05
Tau Millikan-White: 1.14779e-08
Tau Park: 2.47664e-05
Tau Millikan-White: 1.14249e-08
Tau Park: 2.47664e-05
Tau Millikan-White: 1.14779e-08
Tau Park: 2.47664e-05
Tau Millikan-White: 1.14249e-08
Tau Park: 2.47664e-05
Tau Millikan-White: 1.14779e-08
Tau Park: 2.47664e-05
Tau Millikan-White: 1.14249e-08
Tau Park: 2.47664e-05
Tau Millikan-White: 1.14779e-08
Tau Park: 2.47664e-05
Tau Millikan-White: 1.14249e-08
Tau Park: 2.47664e-05
Tau Millikan-White: 1.14779e-08
Tau Park: 2.47664e-05
Tau Millikan-White: 1.14249e-08
Tau Park: 2.47664e-05
Tau Millikan-White: 1.14779e-08
Tau Park: 2.47664e-05
Tau Millikan-White: 1.14249e-08
Tau Park: 2.47664e-05
Tau Millikan-White: 1.14779e-08
Tau Park: 2.47664e-05
Tau Millikan-White: 1.14249e-08
Tau Park: 2.47664e-05
Tau Millikan-White: 1.14779e-08
Tau Park: 2.47664e-05
Tau Millikan-White: 1.14249e-08
Tau Park: 2.47664e-05
Tau Millikan-White: 1.14779e-08
Tau Park: 2.47664e-05
Tau Millikan-White: 1.14249e-08
Tau Park: 2.47664e-05
Tau Millikan-White: 1.14779e-08
Tau Park: 2.47664e-05
Tau Millikan-White: 1.14249e-08
Tau Park: 2.47664e-05
Tau Millikan-White: 1.14779e-08
Tau Park: 2.47664e-05
Tau Millikan-White: 1.14249e-08
Tau Park: 2.47664e-05
Tau Millikan-White: 1.14779e-08
Tau Park: 2.47664e-05
Tau Millikan-White: 1.14249e-08
Tau Park: 2.47664e-05
Tau Millikan-White: 1.14779e-08
Tau Park: 2.47664e-05
Tau Millikan-White: 1.14249e-08
Tau Park: 2.47664e-05
Tau Millikan-White: 1.14779e-08
Tau Park: 2.47664e-05
Tau Millikan-White: 1.14249e-08
Tau Park: 2.47664e-05
Tau Millikan-White: 1.14779e-08
Tau Park: 2.47664e-05
Tau Millikan-White: 1.14249e-08
Tau Park: 2.47664e-05
Tau Millikan-White: 1.14779e-08
Tau Park: 2.47664e-05
Tau Millikan-White: 1.14249e-08
Tau Park: 2.47664e-05
Tau Millikan-White: 1.14779e-08
Tau Park: 2.47664e-05
Tau Millikan-White: 1.14249e-08
Tau Park: 2.47664e-05
Tau Millikan-White: 1.14779e-08
Tau Park: 2.47664e-05
Tau Millikan-White: 1.14249e-08
Tau Park: 2.47664e-05
Tau Millikan-White: 1.14779e-08
Tau Park: 2.47664e-05
Tau Millikan-White: 1.14249e-08
Tau Park: 2.47664e-05
Tau Millikan-White: 1.14779e-08
Tau Park: 2.47664e-05
Tau Millikan-White: 1.14249e-08
Tau Park: 2.47664e-05
Tau Millikan-White: 1.14779e-08
Tau Park: 2.47664e-05
Tau Millikan-White: 1.14249e-08
Tau Park: 2.47664e-05
Tau Millikan-White: 1.14779e-08
Tau Park: 2.47664e-05
Tau Millikan-White: 1.14249e-08
Tau Park: 2.47664e-05
Tau Millikan-White: 1.14779e-08
Tau Park: 2.47664e-05
Tau Millikan-White: 1.14249e-08
Tau Park: 2.47664e-05
Tau Millikan-White: 1.14779e-08
Tau Park: 2.47664e-05
Tau Millikan-White: 1.14249e-08
Tau Park: 2.47664e-05
Tau Millikan-White: 1.14779e-08
Tau Park: 2.47664e-05
Tau Millikan-White: 1.14249e-08
Tau Park: 2.47664e-05
Tau Millikan-White: 1.14779e-08
Tau Park: 2.47664e-05
Tau Millikan-White: 1.14249e-08
Tau Park: 2.47664e-05
Tau Millikan-White: 1.14779e-08
Tau Park: 2.47664e-05
Tau Millikan-White: 1.14249e-08
Tau Park: 2.47664e-05
Tau Millikan-White: 1.14779e-08
Tau Park: 2.47664e-05
Tau Millikan-White: 1.14249e-08
Tau Park: 2.47664e-05
Tau Millikan-White: 1.14779e-08
Tau Park: 2.47664e-05
Tau Millikan-White: 1.14249e-08
Tau Park: 2.47664e-05
Tau Millikan-White: 1.14779e-08
Tau Park: 2.47664e-05
Tau Millikan-White: 1.14249e-08
Tau Park: 2.47664e-05
Tau Millikan-White: 1.14779e-08
Tau Park: 2.47664e-05
Tau Millikan-White: 1.14249e-08
Tau Park: 2.47664e-05
Tau Millikan-White: 1.14779e-08
Tau Park: 2.47664e-05
Tau Millikan-White: 1.14249e-08
Tau Park: 2.47664e-05
Tau Millikan-White: 1.14779e-08
Tau Park: 2.47664e-05
Tau Millikan-White: 1.14249e-08
Tau Park: 2.47664e-05
Tau Millikan-White: 1.14779e-08
Tau Park: 2.47664e-05
Tau Millikan-White: 1.14249e-08
Tau Park: 2.47664e-05
Tau Millikan-White: 1.14779e-08
Tau Park: 2.47664e-05
Tau Millikan-White: 1.14249e-08
Tau Park: 2.47664e-05
Tau Millikan-White: 1.14779e-08
Tau Park: 2.47664e-05
Tau Millikan-White: 1.14249e-08
Tau Park: 2.47664e-05
Tau Millikan-White: 1.14779e-08
Tau Park: 2.47664e-05
Tau Millikan-White: 1.14249e-08
Tau Park: 2.47664e-05
Tau Millikan-White: 1.14779e-08
Tau Park: 2.47664e-05
Tau Millikan-White: 1.14249e-08
Tau Park: 2.47664e-05
Tau Millikan-White: 1.14779e-08
Tau Park: 2.47664e-05
Tau Millikan-White: 1.14249e-08
Tau Park: 2.47664e-05
Tau Millikan-White: 1.14779e-08
Tau Park: 2.47664e-05
Tau Millikan-White: 1.14249e-08
Tau Park: 2.47664e-05
Tau Millikan-White: 1.14779e-08
Tau Park: 2.47664e-05
Tau Millikan-White: 1.14249e-08
Tau Park: 2.47664e-05
Tau Millikan-White: 1.14779e-08
Tau Park: 2.47664e-05
Tau Millikan-White: 1.14249e-08
Tau Park: 2.47664e-05
Tau Millikan-White: 1.14779e-08
Tau Park: 2.47664e-05
Tau Millikan-White: 1.14249e-08
Tau Park: 2.47664e-05
Tau Millikan-White: 1.14779e-08
Tau Park: 2.47664e-05
Tau Millikan-White: 1.14249e-08
Tau Park: 2.47664e-05
Tau Millikan-White: 1.14779e-08
Tau Park: 2.47664e-05
Tau Millikan-White: 1.14249e-08
Tau Park: 2.47664e-05
Tau Millikan-White: 1.14779e-08
Tau Park: 2.47664e-05
Tau Millikan-White: 1.14249e-08
Tau Park: 2.47664e-05
Tau Millikan-White: 1.14779e-08
Tau Park: 2.47664e-05
Tau Millikan-White: 1.14249e-08
Tau Park: 2.47664e-05
Tau Millikan-White: 1.14779e-08
Tau Park: 2.47664e-05
Tau Millikan-White: 1.14249e-08
Tau Park: 2.47664e-05
Tau Millikan-White: 1.14779e-08
Tau Park: 2.47664e-05
Tau Millikan-White: 1.14249e-08
Tau Park: 2.47664e-05
Tau Millikan-White: 1.14779e-08
Tau Park: 2.47664e-05
Tau Millikan-White: 1.14249e-08
Tau Park: 2.47664e-05
Tau Millikan-White: 1.14779e-08
Tau Park: 2.47664e-05
Tau Millikan-White: 1.14249e-08
Tau Park: 2.47664e-05
Tau Millikan-White: 1.14779e-08
Tau Park: 2.47664e-05
Tau Millikan-White: 1.14249e-08
Tau Park: 2.47664e-05
Tau Millikan-White: 1.14779e-08
Tau Park: 2.47664e-05
Tau Millikan-White: 1.14249e-08
Tau Park: 2.47664e-05
Tau Millikan-White: 1.14779e-08
Tau Park: 2.47664e-05
Tau Millikan-White: 1.14249e-08
Tau Park: 2.47664e-05
Tau Millikan-White: 1.14779e-08
Tau Park: 2.47664e-05
Tau Millikan-White: 1.14249e-08
Tau Park: 2.47664e-05
Tau Millikan-White: 1.14779e-08
Tau Park: 2.47664e-05
Tau Millikan-White: 1.14249e-08
Tau Park: 2.47664e-05
Tau Millikan-White: 1.14779e-08
Tau Park: 2.47664e-05
Tau Millikan-White: 1.14249e-08
Tau Park: 2.47664e-05
Tau Millikan-White: 1.14779e-08
Tau Park: 2.47664e-05
Tau Millikan-White: 1.14249e-08
Tau Park: 2.47664e-05
Tau Millikan-White: 1.14779e-08
Tau Park: 2.47664e-05
Tau Millikan-White: 1.14249e-08
Tau Park: 2.47664e-05
Tau Millikan-White: 1.14779e-08
Tau Park: 2.47664e-05
Tau Millikan-White: 1.14249e-08
Tau Park: 2.47664e-05
Tau Millikan-White: 1.14779e-08
Tau Park: 2.47664e-05
Tau Millikan-White: 1.14249e-08
Tau Park: 2.47664e-05
Tau Millikan-White: 1.14779e-08
Tau Park: 2.47664e-05
Tau Millikan-White: 1.14249e-08
Tau Park: 2.47664e-05
Tau Millikan-White: 1.14779e-08
Tau Park: 2.47664e-05
Tau Millikan-White: 1.14249e-08
Tau Park: 2.47664e-05
Tau Millikan-White: 1.14779e-08
Tau Park: 2.47664e-05
Tau Millikan-White: 1.14249e-08
Tau Park: 2.47664e-05
Tau Millikan-White: 1.14779e-08
Tau Park: 2.47664e-05
Tau Millikan-White: 1.14249e-08
Tau Park: 2.47664e-05
Tau Millikan-White: 1.14779e-08
Tau Park: 2.47664e-05
Tau Millikan-White: 1.14249e-08
Tau Park: 2.47664e-05
Tau Millikan-White: 1.14779e-08
Tau Park: 2.47664e-05
Tau Millikan-White: 1.14249e-08
Tau Park: 2.47664e-05
Tau Millikan-White: 1.14779e-08
Tau Park: 2.47664e-05
Tau Millikan-White: 1.14249e-08
Tau Park: 2.47664e-05
Tau Millikan-White: 1.14779e-08
Tau Park: 2.47664e-05
Average mass fraction of Y_N2 is:  0.45
Mol weight of N2 is:  28.0135
Average viscosity of N2 is:  6.24881e-05
Average thermal conductivity of N2 is:  0.17277
Average CpTR of N2 is:  1284.02
Average Q_VT of N2 is: 482.338
Average Tau_VT of N2 is: 2.39416e-05
Average mass fraction of Y_O2 is:  0.55
Mol weight of O2 is:  31.9988
Average viscosity of O2 is:  7.21309e-05
Average thermal conductivity of O2 is:  0.184814
Average CpTR of O2 is:  1180.78
Average Q_VT of O2 is: 498.089
Average Tau_VT of O2 is: 2.55861e-05
Average viscosity of value in internal cells is : 
6.74846e-05
Average thermal conductivity of value in internal cells is : 
0.179045
Average translational-rotational temperature is: 2000
Average vibrational temperature is: 1000.13
Average translational-rotational enthalpy is: 1.2852e+06
Average translational internal energy is: 732258
Average rotational internal energy is: 552943
Average vibrational internal energy is: 33157.7
Mean and max Courant Numbers = 50.9965 50.9965
Time = 0.005

diagonal:  Solving for rho, Initial residual = 0, Final residual = 0, No Iterations 0
diagonal:  Solving for rhoUx, Initial residual = 0, Final residual = 0, No Iterations 0
diagonal:  Solving for rhoUy, Initial residual = 0, Final residual = 0, No Iterations 0
smoothSolver:  Solving for Ux, Initial residual = 0.992377, Final residual = 0.00617503, No Iterations 8
smoothSolver:  Solving for Uy, Initial residual = 0.993182, Final residual = 0.00710551, No Iterations 6
diagonal:  Solving for rhoE, Initial residual = 0, Final residual = 0, No Iterations 0
smoothSolver:  Solving for h, Initial residual = 0.982933, Final residual = 0.00869257, No Iterations 1000
ExecutionTime = 9.71 s  ClockTime = 10 s

End

