/*---------------------------------------------------------------------------*\
| =========                 |                                                 |
| \\      /  F ield         | OpenFOAM: The Open Source CFD Toolbox           |
|  \\    /   O peration     | Version:  2412                                  |
|   \\  /    A nd           | Website:  www.openfoam.com                      |
|    \\/     M anipulation  |                                                 |
\*---------------------------------------------------------------------------*/
Build  : 0bb0c1db74-20250528 OPENFOAM=2412 version=v2412
Arch   : "LSB;label=32;scalar=64"
Exec   : nexaFoam
Date   : Sep 17 2025
Time   : 16:51:56
Host   : FurkanLinux
PID    : 163793
I/O    : uncollated
Case   : /home/t12022124597/Desktop/codeProjects/masterThesisCode/nexaFoam/tutorials/compressible/nexaFoam/obliqueShock
nProcs : 1
trapFpe: Floating point exception trapping enabled (FOAM_SIGFPE).
fileModificationChecking : Monitoring run-time modified files using timeStampMaster (fileModificationSkew 5, maxFileModificationPolls 20)
allowSystemOperations : Allowing user-supplied system call operations

// * * * * * * * * * * * * * * * * * * * * * * * * * * * * * * * * * * * * * //
Create time

Create mesh for time = 0

Selecting thermodynamics package 
{
    type            heNe2TThermo;
    mixture         pureMixture;
    transport       blottnerEucken2T;
    thermo          janaf2T;
    equationOfState perfectGas;
    specie          specie;
    energy          sensibleCalculation2T;
}

--> FOAM Warning : 
    From Foam::scalar Foam::janaf2TThermo<EquationOfState>::limit(Foam::scalar) const [with EquationOfState = Foam::perfectGas<Foam::specie>; Foam::scalar = double]
    in file ../specie/lnInclude/janaf2TThermoI.H at line 123
    attempt to use janaf2TThermo<EquationOfState> out of temperature range 100 -> 10000;  TTR = 0.499875
--> FOAM Warning : 
    From Foam::scalar Foam::janaf2TThermo<EquationOfState>::limit(Foam::scalar) const [with EquationOfState = Foam::perfectGas<Foam::specie>; Foam::scalar = double]
    in file ../specie/lnInclude/janaf2TThermoI.H at line 123
    attempt to use janaf2TThermo<EquationOfState> out of temperature range 100 -> 10000;  TTR = 0.498752
--> FOAM Warning : 
    From Foam::scalar Foam::janaf2TThermo<EquationOfState>::limit(Foam::scalar) const [with EquationOfState = Foam::perfectGas<Foam::specie>; Foam::scalar = double]
    in file ../specie/lnInclude/janaf2TThermoI.H at line 123
    attempt to use janaf2TThermo<EquationOfState> out of temperature range 100 -> 10000;  TTR = 0.499875
--> FOAM Warning : 
    From Foam::scalar Foam::janaf2TThermo<EquationOfState>::limit(Foam::scalar) const [with EquationOfState = Foam::perfectGas<Foam::specie>; Foam::scalar = double]
    in file ../specie/lnInclude/janaf2TThermoI.H at line 123
    attempt to use janaf2TThermo<EquationOfState> out of temperature range 100 -> 10000;  TTR = 0.498752
--> FOAM Warning : 
    From Foam::scalar Foam::janaf2TThermo<EquationOfState>::limit(Foam::scalar) const [with EquationOfState = Foam::perfectGas<Foam::specie>; Foam::scalar = double]
    in file ../specie/lnInclude/janaf2TThermoI.H at line 123
    attempt to use janaf2TThermo<EquationOfState> out of temperature range 100 -> 10000;  TTR = 0.499875
--> FOAM Warning : 
    From Foam::scalar Foam::janaf2TThermo<EquationOfState>::limit(Foam::scalar) const [with EquationOfState = Foam::perfectGas<Foam::specie>; Foam::scalar = double]
    in file ../specie/lnInclude/janaf2TThermoI.H at line 123
    attempt to use janaf2TThermo<EquationOfState> out of temperature range 100 -> 10000;  TTR = 0.498752
--> FOAM Warning : 
    From Foam::scalar Foam::janaf2TThermo<EquationOfState>::limit(Foam::scalar) const [with EquationOfState = Foam::perfectGas<Foam::specie>; Foam::scalar = double]
    in file ../specie/lnInclude/janaf2TThermoI.H at line 123
    attempt to use janaf2TThermo<EquationOfState> out of temperature range 100 -> 10000;  TTR = 0.499875
--> FOAM Warning : 
    From Foam::scalar Foam::janaf2TThermo<EquationOfState>::limit(Foam::scalar) const [with EquationOfState = Foam::perfectGas<Foam::specie>; Foam::scalar = double]
    in file ../specie/lnInclude/janaf2TThermoI.H at line 123
    attempt to use janaf2TThermo<EquationOfState> out of temperature range 100 -> 10000;  TTR = 0.498752
--> FOAM Warning : 
    From Foam::scalar Foam::janaf2TThermo<EquationOfState>::limit(Foam::scalar) const [with EquationOfState = Foam::perfectGas<Foam::specie>; Foam::scalar = double]
    in file ../specie/lnInclude/janaf2TThermoI.H at line 123
    attempt to use janaf2TThermo<EquationOfState> out of temperature range 100 -> 10000;  TTR = 0.499875
--> FOAM Warning : 
    From Foam::scalar Foam::janaf2TThermo<EquationOfState>::limit(Foam::scalar) const [with EquationOfState = Foam::perfectGas<Foam::specie>; Foam::scalar = double]
    in file ../specie/lnInclude/janaf2TThermoI.H at line 123
    attempt to use janaf2TThermo<EquationOfState> out of temperature range 100 -> 10000;  TTR = 0.498752
--> FOAM Warning : 
    From Foam::scalar Foam::janaf2TThermo<EquationOfState>::limit(Foam::scalar) const [with EquationOfState = Foam::perfectGas<Foam::specie>; Foam::scalar = double]
    in file ../specie/lnInclude/janaf2TThermoI.H at line 123
    attempt to use janaf2TThermo<EquationOfState> out of temperature range 100 -> 10000;  TTR = 0.499875
--> FOAM Warning : 
    From Foam::scalar Foam::janaf2TThermo<EquationOfState>::limit(Foam::scalar) const [with EquationOfState = Foam::perfectGas<Foam::specie>; Foam::scalar = double]
    in file ../specie/lnInclude/janaf2TThermoI.H at line 123
    attempt to use janaf2TThermo<EquationOfState> out of temperature range 100 -> 10000;  TTR = 0.498752
--> FOAM Warning : 
    From Foam::scalar Foam::janaf2TThermo<EquationOfState>::limit(Foam::scalar) const [with EquationOfState = Foam::perfectGas<Foam::specie>; Foam::scalar = double]
    in file ../specie/lnInclude/janaf2TThermoI.H at line 123
    attempt to use janaf2TThermo<EquationOfState> out of temperature range 100 -> 10000;  TTR = 0.499875
--> FOAM Warning : 
    From Foam::scalar Foam::janaf2TThermo<EquationOfState>::limit(Foam::scalar) const [with EquationOfState = Foam::perfectGas<Foam::specie>; Foam::scalar = double]
    in file ../specie/lnInclude/janaf2TThermoI.H at line 123
    attempt to use janaf2TThermo<EquationOfState> out of temperature range 100 -> 10000;  TTR = 0.498752
--> FOAM Warning : 
    From Foam::scalar Foam::janaf2TThermo<EquationOfState>::limit(Foam::scalar) const [with EquationOfState = Foam::perfectGas<Foam::specie>; Foam::scalar = double]
    in file ../specie/lnInclude/janaf2TThermoI.H at line 123
    attempt to use janaf2TThermo<EquationOfState> out of temperature range 100 -> 10000;  TTR = 0.499875
--> FOAM Warning : 
    From Foam::scalar Foam::janaf2TThermo<EquationOfState>::limit(Foam::scalar) const [with EquationOfState = Foam::perfectGas<Foam::specie>; Foam::scalar = double]
    in file ../specie/lnInclude/janaf2TThermoI.H at line 123
    attempt to use janaf2TThermo<EquationOfState> out of temperature range 100 -> 10000;  TTR = 0.498752
--> FOAM Warning : 
    From Foam::scalar Foam::janaf2TThermo<EquationOfState>::limit(Foam::scalar) const [with EquationOfState = Foam::perfectGas<Foam::specie>; Foam::scalar = double]
    in file ../specie/lnInclude/janaf2TThermoI.H at line 123
    attempt to use janaf2TThermo<EquationOfState> out of temperature range 100 -> 10000;  TTR = 0.499875
--> FOAM Warning : 
    From Foam::scalar Foam::janaf2TThermo<EquationOfState>::limit(Foam::scalar) const [with EquationOfState = Foam::perfectGas<Foam::specie>; Foam::scalar = double]
    in file ../specie/lnInclude/janaf2TThermoI.H at line 123
    attempt to use janaf2TThermo<EquationOfState> out of temperature range 100 -> 10000;  TTR = 0.498752
--> FOAM Warning : 
    From Foam::scalar Foam::janaf2TThermo<EquationOfState>::limit(Foam::scalar) const [with EquationOfState = Foam::perfectGas<Foam::specie>; Foam::scalar = double]
    in file ../specie/lnInclude/janaf2TThermoI.H at line 123
    attempt to use janaf2TThermo<EquationOfState> out of temperature range 100 -> 10000;  TTR = 0.499875
--> FOAM Warning : 
    From Foam::scalar Foam::janaf2TThermo<EquationOfState>::limit(Foam::scalar) const [with EquationOfState = Foam::perfectGas<Foam::specie>; Foam::scalar = double]
    in file ../specie/lnInclude/janaf2TThermoI.H at line 123
    attempt to use janaf2TThermo<EquationOfState> out of temperature range 100 -> 10000;  TTR = 0.498752
--> FOAM Warning : 
    From Foam::scalar Foam::janaf2TThermo<EquationOfState>::limit(Foam::scalar) const [with EquationOfState = Foam::perfectGas<Foam::specie>; Foam::scalar = double]
    in file ../specie/lnInclude/janaf2TThermoI.H at line 123
    attempt to use janaf2TThermo<EquationOfState> out of temperature range 100 -> 10000;  TTR = 0.499875
--> FOAM Warning : 
    From Foam::scalar Foam::janaf2TThermo<EquationOfState>::limit(Foam::scalar) const [with EquationOfState = Foam::perfectGas<Foam::specie>; Foam::scalar = double]
    in file ../specie/lnInclude/janaf2TThermoI.H at line 123
    attempt to use janaf2TThermo<EquationOfState> out of temperature range 100 -> 10000;  TTR = 0.498752
--> FOAM Warning : 
    From Foam::scalar Foam::janaf2TThermo<EquationOfState>::limit(Foam::scalar) const [with EquationOfState = Foam::perfectGas<Foam::specie>; Foam::scalar = double]
    in file ../specie/lnInclude/janaf2TThermoI.H at line 123
    attempt to use janaf2TThermo<EquationOfState> out of temperature range 100 -> 10000;  TTR = 0.499875
--> FOAM Warning : 
    From Foam::scalar Foam::janaf2TThermo<EquationOfState>::limit(Foam::scalar) const [with EquationOfState = Foam::perfectGas<Foam::specie>; Foam::scalar = double]
    in file ../specie/lnInclude/janaf2TThermoI.H at line 123
    attempt to use janaf2TThermo<EquationOfState> out of temperature range 100 -> 10000;  TTR = 0.498752
--> FOAM Warning : 
    From Foam::scalar Foam::janaf2TThermo<EquationOfState>::limit(Foam::scalar) const [with EquationOfState = Foam::perfectGas<Foam::specie>; Foam::scalar = double]
    in file ../specie/lnInclude/janaf2TThermoI.H at line 123
    attempt to use janaf2TThermo<EquationOfState> out of temperature range 100 -> 10000;  TTR = 0.499875
--> FOAM Warning : 
    From Foam::scalar Foam::janaf2TThermo<EquationOfState>::limit(Foam::scalar) const [with EquationOfState = Foam::perfectGas<Foam::specie>; Foam::scalar = double]
    in file ../specie/lnInclude/janaf2TThermoI.H at line 123
    attempt to use janaf2TThermo<EquationOfState> out of temperature range 100 -> 10000;  TTR = 0.498752
--> FOAM Warning : 
    From Foam::scalar Foam::janaf2TThermo<EquationOfState>::limit(Foam::scalar) const [with EquationOfState = Foam::perfectGas<Foam::specie>; Foam::scalar = double]
    in file ../specie/lnInclude/janaf2TThermoI.H at line 123
    attempt to use janaf2TThermo<EquationOfState> out of temperature range 100 -> 10000;  TTR = 0.499875
--> FOAM Warning : 
    From Foam::scalar Foam::janaf2TThermo<EquationOfState>::limit(Foam::scalar) const [with EquationOfState = Foam::perfectGas<Foam::specie>; Foam::scalar = double]
    in file ../specie/lnInclude/janaf2TThermoI.H at line 123
    attempt to use janaf2TThermo<EquationOfState> out of temperature range 100 -> 10000;  TTR = 0.498752
--> FOAM Warning : 
    From Foam::scalar Foam::janaf2TThermo<EquationOfState>::limit(Foam::scalar) const [with EquationOfState = Foam::perfectGas<Foam::specie>; Foam::scalar = double]
    in file ../specie/lnInclude/janaf2TThermoI.H at line 123
    attempt to use janaf2TThermo<EquationOfState> out of temperature range 100 -> 10000;  TTR = 0.499875
--> FOAM Warning : 
    From Foam::scalar Foam::janaf2TThermo<EquationOfState>::limit(Foam::scalar) const [with EquationOfState = Foam::perfectGas<Foam::specie>; Foam::scalar = double]
    in file ../specie/lnInclude/janaf2TThermoI.H at line 123
    attempt to use janaf2TThermo<EquationOfState> out of temperature range 100 -> 10000;  TTR = 0.498752
--> FOAM Warning : 
    From Foam::scalar Foam::janaf2TThermo<EquationOfState>::limit(Foam::scalar) const [with EquationOfState = Foam::perfectGas<Foam::specie>; Foam::scalar = double]
    in file ../specie/lnInclude/janaf2TThermoI.H at line 123
    attempt to use janaf2TThermo<EquationOfState> out of temperature range 100 -> 10000;  TTR = 0.499875
--> FOAM Warning : 
    From Foam::scalar Foam::janaf2TThermo<EquationOfState>::limit(Foam::scalar) const [with EquationOfState = Foam::perfectGas<Foam::specie>; Foam::scalar = double]
    in file ../specie/lnInclude/janaf2TThermoI.H at line 123
    attempt to use janaf2TThermo<EquationOfState> out of temperature range 100 -> 10000;  TTR = 0.498752
--> FOAM Warning : 
    From Foam::scalar Foam::janaf2TThermo<EquationOfState>::limit(Foam::scalar) const [with EquationOfState = Foam::perfectGas<Foam::specie>; Foam::scalar = double]
    in file ../specie/lnInclude/janaf2TThermoI.H at line 123
    attempt to use janaf2TThermo<EquationOfState> out of temperature range 100 -> 10000;  TTR = 0.499875
--> FOAM Warning : 
    From Foam::scalar Foam::janaf2TThermo<EquationOfState>::limit(Foam::scalar) const [with EquationOfState = Foam::perfectGas<Foam::specie>; Foam::scalar = double]
    in file ../specie/lnInclude/janaf2TThermoI.H at line 123
    attempt to use janaf2TThermo<EquationOfState> out of temperature range 100 -> 10000;  TTR = 0.498752
--> FOAM Warning : 
    From Foam::scalar Foam::janaf2TThermo<EquationOfState>::limit(Foam::scalar) const [with EquationOfState = Foam::perfectGas<Foam::specie>; Foam::scalar = double]
    in file ../specie/lnInclude/janaf2TThermoI.H at line 123
    attempt to use janaf2TThermo<EquationOfState> out of temperature range 100 -> 10000;  TTR = 0.499875
--> FOAM Warning : 
    From Foam::scalar Foam::janaf2TThermo<EquationOfState>::limit(Foam::scalar) const [with EquationOfState = Foam::perfectGas<Foam::specie>; Foam::scalar = double]
    in file ../specie/lnInclude/janaf2TThermoI.H at line 123
    attempt to use janaf2TThermo<EquationOfState> out of temperature range 100 -> 10000;  TTR = 0.498752
--> FOAM Warning : 
    From Foam::scalar Foam::janaf2TThermo<EquationOfState>::limit(Foam::scalar) const [with EquationOfState = Foam::perfectGas<Foam::specie>; Foam::scalar = double]
    in file ../specie/lnInclude/janaf2TThermoI.H at line 123
    attempt to use janaf2TThermo<EquationOfState> out of temperature range 100 -> 10000;  TTR = 0.499875
--> FOAM Warning : 
    From Foam::scalar Foam::janaf2TThermo<EquationOfState>::limit(Foam::scalar) const [with EquationOfState = Foam::perfectGas<Foam::specie>; Foam::scalar = double]
    in file ../specie/lnInclude/janaf2TThermoI.H at line 123
    attempt to use janaf2TThermo<EquationOfState> out of temperature range 100 -> 10000;  TTR = 0.498752
--> FOAM Warning : 
    From Foam::scalar Foam::janaf2TThermo<EquationOfState>::limit(Foam::scalar) const [with EquationOfState = Foam::perfectGas<Foam::specie>; Foam::scalar = double]
    in file ../specie/lnInclude/janaf2TThermoI.H at line 123
    attempt to use janaf2TThermo<EquationOfState> out of temperature range 100 -> 10000;  TTR = 0.499875
--> FOAM Warning : 
    From Foam::scalar Foam::janaf2TThermo<EquationOfState>::limit(Foam::scalar) const [with EquationOfState = Foam::perfectGas<Foam::specie>; Foam::scalar = double]
    in file ../specie/lnInclude/janaf2TThermoI.H at line 123
    attempt to use janaf2TThermo<EquationOfState> out of temperature range 100 -> 10000;  TTR = 0.498752
--> FOAM Warning : 
    From Foam::scalar Foam::janaf2TThermo<EquationOfState>::limit(Foam::scalar) const [with EquationOfState = Foam::perfectGas<Foam::specie>; Foam::scalar = double]
    in file ../specie/lnInclude/janaf2TThermoI.H at line 123
    attempt to use janaf2TThermo<EquationOfState> out of temperature range 100 -> 10000;  TTR = 0.499875
--> FOAM Warning : 
    From Foam::scalar Foam::janaf2TThermo<EquationOfState>::limit(Foam::scalar) const [with EquationOfState = Foam::perfectGas<Foam::specie>; Foam::scalar = double]
    in file ../specie/lnInclude/janaf2TThermoI.H at line 123
    attempt to use janaf2TThermo<EquationOfState> out of temperature range 100 -> 10000;  TTR = 0.498752
--> FOAM Warning : 
    From Foam::scalar Foam::janaf2TThermo<EquationOfState>::limit(Foam::scalar) const [with EquationOfState = Foam::perfectGas<Foam::specie>; Foam::scalar = double]
    in file ../specie/lnInclude/janaf2TThermoI.H at line 123
    attempt to use janaf2TThermo<EquationOfState> out of temperature range 100 -> 10000;  TTR = 0.499875
--> FOAM Warning : 
    From Foam::scalar Foam::janaf2TThermo<EquationOfState>::limit(Foam::scalar) const [with EquationOfState = Foam::perfectGas<Foam::specie>; Foam::scalar = double]
    in file ../specie/lnInclude/janaf2TThermoI.H at line 123
    attempt to use janaf2TThermo<EquationOfState> out of temperature range 100 -> 10000;  TTR = 0.498752
--> FOAM Warning : 
    From Foam::scalar Foam::janaf2TThermo<EquationOfState>::limit(Foam::scalar) const [with EquationOfState = Foam::perfectGas<Foam::specie>; Foam::scalar = double]
    in file ../specie/lnInclude/janaf2TThermoI.H at line 123
    attempt to use janaf2TThermo<EquationOfState> out of temperature range 100 -> 10000;  TTR = 0.499875
--> FOAM Warning : 
    From Foam::scalar Foam::janaf2TThermo<EquationOfState>::limit(Foam::scalar) const [with EquationOfState = Foam::perfectGas<Foam::specie>; Foam::scalar = double]
    in file ../specie/lnInclude/janaf2TThermoI.H at line 123
    attempt to use janaf2TThermo<EquationOfState> out of temperature range 100 -> 10000;  TTR = 0.498752
--> FOAM Warning : 
    From Foam::scalar Foam::janaf2TThermo<EquationOfState>::limit(Foam::scalar) const [with EquationOfState = Foam::perfectGas<Foam::specie>; Foam::scalar = double]
    in file ../specie/lnInclude/janaf2TThermoI.H at line 123
    attempt to use janaf2TThermo<EquationOfState> out of temperature range 100 -> 10000;  TTR = 0.499875
--> FOAM Warning : 
    From Foam::scalar Foam::janaf2TThermo<EquationOfState>::limit(Foam::scalar) const [with EquationOfState = Foam::perfectGas<Foam::specie>; Foam::scalar = double]
    in file ../specie/lnInclude/janaf2TThermoI.H at line 123
    attempt to use janaf2TThermo<EquationOfState> out of temperature range 100 -> 10000;  TTR = 0.498752
--> FOAM Warning : 
    From Foam::scalar Foam::janaf2TThermo<EquationOfState>::limit(Foam::scalar) const [with EquationOfState = Foam::perfectGas<Foam::specie>; Foam::scalar = double]
    in file ../specie/lnInclude/janaf2TThermoI.H at line 123
    attempt to use janaf2TThermo<EquationOfState> out of temperature range 100 -> 10000;  TTR = 0.499875
--> FOAM Warning : 
    From Foam::scalar Foam::janaf2TThermo<EquationOfState>::limit(Foam::scalar) const [with EquationOfState = Foam::perfectGas<Foam::specie>; Foam::scalar = double]
    in file ../specie/lnInclude/janaf2TThermoI.H at line 123
    attempt to use janaf2TThermo<EquationOfState> out of temperature range 100 -> 10000;  TTR = 0.498752
--> FOAM Warning : 
    From Foam::scalar Foam::janaf2TThermo<EquationOfState>::limit(Foam::scalar) const [with EquationOfState = Foam::perfectGas<Foam::specie>; Foam::scalar = double]
    in file ../specie/lnInclude/janaf2TThermoI.H at line 123
    attempt to use janaf2TThermo<EquationOfState> out of temperature range 100 -> 10000;  TTR = 0.499875
--> FOAM Warning : 
    From Foam::scalar Foam::janaf2TThermo<EquationOfState>::limit(Foam::scalar) const [with EquationOfState = Foam::perfectGas<Foam::specie>; Foam::scalar = double]
    in file ../specie/lnInclude/janaf2TThermoI.H at line 123
    attempt to use janaf2TThermo<EquationOfState> out of temperature range 100 -> 10000;  TTR = 0.498752
--> FOAM Warning : 
    From Foam::scalar Foam::janaf2TThermo<EquationOfState>::limit(Foam::scalar) const [with EquationOfState = Foam::perfectGas<Foam::specie>; Foam::scalar = double]
    in file ../specie/lnInclude/janaf2TThermoI.H at line 123
    attempt to use janaf2TThermo<EquationOfState> out of temperature range 100 -> 10000;  TTR = 0.499875
--> FOAM Warning : 
    From Foam::scalar Foam::janaf2TThermo<EquationOfState>::limit(Foam::scalar) const [with EquationOfState = Foam::perfectGas<Foam::specie>; Foam::scalar = double]
    in file ../specie/lnInclude/janaf2TThermoI.H at line 123
    attempt to use janaf2TThermo<EquationOfState> out of temperature range 100 -> 10000;  TTR = 0.498752
--> FOAM Warning : 
    From Foam::scalar Foam::janaf2TThermo<EquationOfState>::limit(Foam::scalar) const [with EquationOfState = Foam::perfectGas<Foam::specie>; Foam::scalar = double]
    in file ../specie/lnInclude/janaf2TThermoI.H at line 123
    attempt to use janaf2TThermo<EquationOfState> out of temperature range 100 -> 10000;  TTR = 0.499875
--> FOAM Warning : 
    From Foam::scalar Foam::janaf2TThermo<EquationOfState>::limit(Foam::scalar) const [with EquationOfState = Foam::perfectGas<Foam::specie>; Foam::scalar = double]
    in file ../specie/lnInclude/janaf2TThermoI.H at line 123
    attempt to use janaf2TThermo<EquationOfState> out of temperature range 100 -> 10000;  TTR = 0.498752
--> FOAM Warning : 
    From Foam::scalar Foam::janaf2TThermo<EquationOfState>::limit(Foam::scalar) const [with EquationOfState = Foam::perfectGas<Foam::specie>; Foam::scalar = double]
    in file ../specie/lnInclude/janaf2TThermoI.H at line 123
    attempt to use janaf2TThermo<EquationOfState> out of temperature range 100 -> 10000;  TTR = 0.499875
--> FOAM Warning : 
    From Foam::scalar Foam::janaf2TThermo<EquationOfState>::limit(Foam::scalar) const [with EquationOfState = Foam::perfectGas<Foam::specie>; Foam::scalar = double]
    in file ../specie/lnInclude/janaf2TThermoI.H at line 123
    attempt to use janaf2TThermo<EquationOfState> out of temperature range 100 -> 10000;  TTR = 0.498752
--> FOAM Warning : 
    From Foam::scalar Foam::janaf2TThermo<EquationOfState>::limit(Foam::scalar) const [with EquationOfState = Foam::perfectGas<Foam::specie>; Foam::scalar = double]
    in file ../specie/lnInclude/janaf2TThermoI.H at line 123
    attempt to use janaf2TThermo<EquationOfState> out of temperature range 100 -> 10000;  TTR = 0.499875
--> FOAM Warning : 
    From Foam::scalar Foam::janaf2TThermo<EquationOfState>::limit(Foam::scalar) const [with EquationOfState = Foam::perfectGas<Foam::specie>; Foam::scalar = double]
    in file ../specie/lnInclude/janaf2TThermoI.H at line 123
    attempt to use janaf2TThermo<EquationOfState> out of temperature range 100 -> 10000;  TTR = 0.498752
--> FOAM Warning : 
    From Foam::scalar Foam::janaf2TThermo<EquationOfState>::limit(Foam::scalar) const [with EquationOfState = Foam::perfectGas<Foam::specie>; Foam::scalar = double]
    in file ../specie/lnInclude/janaf2TThermoI.H at line 123
    attempt to use janaf2TThermo<EquationOfState> out of temperature range 100 -> 10000;  TTR = 0.499875
--> FOAM Warning : 
    From Foam::scalar Foam::janaf2TThermo<EquationOfState>::limit(Foam::scalar) const [with EquationOfState = Foam::perfectGas<Foam::specie>; Foam::scalar = double]
    in file ../specie/lnInclude/janaf2TThermoI.H at line 123
    attempt to use janaf2TThermo<EquationOfState> out of temperature range 100 -> 10000;  TTR = 0.498752
--> FOAM Warning : 
    From Foam::scalar Foam::janaf2TThermo<EquationOfState>::limit(Foam::scalar) const [with EquationOfState = Foam::perfectGas<Foam::specie>; Foam::scalar = double]
    in file ../specie/lnInclude/janaf2TThermoI.H at line 123
    attempt to use janaf2TThermo<EquationOfState> out of temperature range 100 -> 10000;  TTR = 0.499875
--> FOAM Warning : 
    From Foam::scalar Foam::janaf2TThermo<EquationOfState>::limit(Foam::scalar) const [with EquationOfState = Foam::perfectGas<Foam::specie>; Foam::scalar = double]
    in file ../specie/lnInclude/janaf2TThermoI.H at line 123
    attempt to use janaf2TThermo<EquationOfState> out of temperature range 100 -> 10000;  TTR = 0.498752
--> FOAM Warning : 
    From Foam::scalar Foam::janaf2TThermo<EquationOfState>::limit(Foam::scalar) const [with EquationOfState = Foam::perfectGas<Foam::specie>; Foam::scalar = double]
    in file ../specie/lnInclude/janaf2TThermoI.H at line 123
    attempt to use janaf2TThermo<EquationOfState> out of temperature range 100 -> 10000;  TTR = 0.499875
--> FOAM Warning : 
    From Foam::scalar Foam::janaf2TThermo<EquationOfState>::limit(Foam::scalar) const [with EquationOfState = Foam::perfectGas<Foam::specie>; Foam::scalar = double]
    in file ../specie/lnInclude/janaf2TThermoI.H at line 123
    attempt to use janaf2TThermo<EquationOfState> out of temperature range 100 -> 10000;  TTR = 0.498752
--> FOAM Warning : 
    From Foam::scalar Foam::janaf2TThermo<EquationOfState>::limit(Foam::scalar) const [with EquationOfState = Foam::perfectGas<Foam::specie>; Foam::scalar = double]
    in file ../specie/lnInclude/janaf2TThermoI.H at line 123
    attempt to use janaf2TThermo<EquationOfState> out of temperature range 100 -> 10000;  TTR = 0.499875
--> FOAM Warning : 
    From Foam::scalar Foam::janaf2TThermo<EquationOfState>::limit(Foam::scalar) const [with EquationOfState = Foam::perfectGas<Foam::specie>; Foam::scalar = double]
    in file ../specie/lnInclude/janaf2TThermoI.H at line 123
    attempt to use janaf2TThermo<EquationOfState> out of temperature range 100 -> 10000;  TTR = 0.498752
--> FOAM Warning : 
    From Foam::scalar Foam::janaf2TThermo<EquationOfState>::limit(Foam::scalar) const [with EquationOfState = Foam::perfectGas<Foam::specie>; Foam::scalar = double]
    in file ../specie/lnInclude/janaf2TThermoI.H at line 123
    attempt to use janaf2TThermo<EquationOfState> out of temperature range 100 -> 10000;  TTR = 0.499875
--> FOAM Warning : 
    From Foam::scalar Foam::janaf2TThermo<EquationOfState>::limit(Foam::scalar) const [with EquationOfState = Foam::perfectGas<Foam::specie>; Foam::scalar = double]
    in file ../specie/lnInclude/janaf2TThermoI.H at line 123
    attempt to use janaf2TThermo<EquationOfState> out of temperature range 100 -> 10000;  TTR = 0.498752
--> FOAM Warning : 
    From Foam::scalar Foam::janaf2TThermo<EquationOfState>::limit(Foam::scalar) const [with EquationOfState = Foam::perfectGas<Foam::specie>; Foam::scalar = double]
    in file ../specie/lnInclude/janaf2TThermoI.H at line 123
    attempt to use janaf2TThermo<EquationOfState> out of temperature range 100 -> 10000;  TTR = 0.499875
--> FOAM Warning : 
    From Foam::scalar Foam::janaf2TThermo<EquationOfState>::limit(Foam::scalar) const [with EquationOfState = Foam::perfectGas<Foam::specie>; Foam::scalar = double]
    in file ../specie/lnInclude/janaf2TThermoI.H at line 123
    attempt to use janaf2TThermo<EquationOfState> out of temperature range 100 -> 10000;  TTR = 0.498752
--> FOAM Warning : 
    From Foam::scalar Foam::janaf2TThermo<EquationOfState>::limit(Foam::scalar) const [with EquationOfState = Foam::perfectGas<Foam::specie>; Foam::scalar = double]
    in file ../specie/lnInclude/janaf2TThermoI.H at line 123
    attempt to use janaf2TThermo<EquationOfState> out of temperature range 100 -> 10000;  TTR = 0.499875
--> FOAM Warning : 
    From Foam::scalar Foam::janaf2TThermo<EquationOfState>::limit(Foam::scalar) const [with EquationOfState = Foam::perfectGas<Foam::specie>; Foam::scalar = double]
    in file ../specie/lnInclude/janaf2TThermoI.H at line 123
    attempt to use janaf2TThermo<EquationOfState> out of temperature range 100 -> 10000;  TTR = 0.498752
--> FOAM Warning : 
    From Foam::scalar Foam::janaf2TThermo<EquationOfState>::limit(Foam::scalar) const [with EquationOfState = Foam::perfectGas<Foam::specie>; Foam::scalar = double]
    in file ../specie/lnInclude/janaf2TThermoI.H at line 123
    attempt to use janaf2TThermo<EquationOfState> out of temperature range 100 -> 10000;  TTR = 0.499875
--> FOAM Warning : 
    From Foam::scalar Foam::janaf2TThermo<EquationOfState>::limit(Foam::scalar) const [with EquationOfState = Foam::perfectGas<Foam::specie>; Foam::scalar = double]
    in file ../specie/lnInclude/janaf2TThermoI.H at line 123
    attempt to use janaf2TThermo<EquationOfState> out of temperature range 100 -> 10000;  TTR = 0.498752
--> FOAM Warning : 
    From Foam::scalar Foam::janaf2TThermo<EquationOfState>::limit(Foam::scalar) const [with EquationOfState = Foam::perfectGas<Foam::specie>; Foam::scalar = double]
    in file ../specie/lnInclude/janaf2TThermoI.H at line 123
    attempt to use janaf2TThermo<EquationOfState> out of temperature range 100 -> 10000;  TTR = 0.499875
--> FOAM Warning : 
    From Foam::scalar Foam::janaf2TThermo<EquationOfState>::limit(Foam::scalar) const [with EquationOfState = Foam::perfectGas<Foam::specie>; Foam::scalar = double]
    in file ../specie/lnInclude/janaf2TThermoI.H at line 123
    attempt to use janaf2TThermo<EquationOfState> out of temperature range 100 -> 10000;  TTR = 0.498752
--> FOAM Warning : 
    From Foam::scalar Foam::janaf2TThermo<EquationOfState>::limit(Foam::scalar) const [with EquationOfState = Foam::perfectGas<Foam::specie>; Foam::scalar = double]
    in file ../specie/lnInclude/janaf2TThermoI.H at line 123
    attempt to use janaf2TThermo<EquationOfState> out of temperature range 100 -> 10000;  TTR = 0.499875
--> FOAM Warning : 
    From Foam::scalar Foam::janaf2TThermo<EquationOfState>::limit(Foam::scalar) const [with EquationOfState = Foam::perfectGas<Foam::specie>; Foam::scalar = double]
    in file ../specie/lnInclude/janaf2TThermoI.H at line 123
    attempt to use janaf2TThermo<EquationOfState> out of temperature range 100 -> 10000;  TTR = 0.498752
--> FOAM Warning : 
    From Foam::scalar Foam::janaf2TThermo<EquationOfState>::limit(Foam::scalar) const [with EquationOfState = Foam::perfectGas<Foam::specie>; Foam::scalar = double]
    in file ../specie/lnInclude/janaf2TThermoI.H at line 123
    attempt to use janaf2TThermo<EquationOfState> out of temperature range 100 -> 10000;  TTR = 0.499875
--> FOAM Warning : 
    From Foam::scalar Foam::janaf2TThermo<EquationOfState>::limit(Foam::scalar) const [with EquationOfState = Foam::perfectGas<Foam::specie>; Foam::scalar = double]
    in file ../specie/lnInclude/janaf2TThermoI.H at line 123
    attempt to use janaf2TThermo<EquationOfState> out of temperature range 100 -> 10000;  TTR = 0.498752
--> FOAM Warning : 
    From Foam::scalar Foam::janaf2TThermo<EquationOfState>::limit(Foam::scalar) const [with EquationOfState = Foam::perfectGas<Foam::specie>; Foam::scalar = double]
    in file ../specie/lnInclude/janaf2TThermoI.H at line 123
    attempt to use janaf2TThermo<EquationOfState> out of temperature range 100 -> 10000;  TTR = 0.499875
--> FOAM Warning : 
    From Foam::scalar Foam::janaf2TThermo<EquationOfState>::limit(Foam::scalar) const [with EquationOfState = Foam::perfectGas<Foam::specie>; Foam::scalar = double]
    in file ../specie/lnInclude/janaf2TThermoI.H at line 123
    attempt to use janaf2TThermo<EquationOfState> out of temperature range 100 -> 10000;  TTR = 0.498752
--> FOAM Warning : 
    From Foam::scalar Foam::janaf2TThermo<EquationOfState>::limit(Foam::scalar) const [with EquationOfState = Foam::perfectGas<Foam::specie>; Foam::scalar = double]
    in file ../specie/lnInclude/janaf2TThermoI.H at line 123
    attempt to use janaf2TThermo<EquationOfState> out of temperature range 100 -> 10000;  TTR = 0.499875
--> FOAM Warning : 
    From Foam::scalar Foam::janaf2TThermo<EquationOfState>::limit(Foam::scalar) const [with EquationOfState = Foam::perfectGas<Foam::specie>; Foam::scalar = double]
    in file ../specie/lnInclude/janaf2TThermoI.H at line 123
    attempt to use janaf2TThermo<EquationOfState> out of temperature range 100 -> 10000;  TTR = 0.498752
--> FOAM Warning : 
    From Foam::scalar Foam::janaf2TThermo<EquationOfState>::limit(Foam::scalar) const [with EquationOfState = Foam::perfectGas<Foam::specie>; Foam::scalar = double]
    in file ../specie/lnInclude/janaf2TThermoI.H at line 123
    attempt to use janaf2TThermo<EquationOfState> out of temperature range 100 -> 10000;  TTR = 0.499875
--> FOAM Warning : 
    From Foam::scalar Foam::janaf2TThermo<EquationOfState>::limit(Foam::scalar) const [with EquationOfState = Foam::perfectGas<Foam::specie>; Foam::scalar = double]
    in file ../specie/lnInclude/janaf2TThermoI.H at line 123
    attempt to use janaf2TThermo<EquationOfState> out of temperature range 100 -> 10000;  TTR = 0.498752
--> FOAM Warning : 
    From Foam::scalar Foam::janaf2TThermo<EquationOfState>::limit(Foam::scalar) const [with EquationOfState = Foam::perfectGas<Foam::specie>; Foam::scalar = double]
    in file ../specie/lnInclude/janaf2TThermoI.H at line 123
    attempt to use janaf2TThermo<EquationOfState> out of temperature range 100 -> 10000;  TTR = 0.499875
--> FOAM Warning : 
    From Foam::scalar Foam::janaf2TThermo<EquationOfState>::limit(Foam::scalar) const [with EquationOfState = Foam::perfectGas<Foam::specie>; Foam::scalar = double]
    in file ../specie/lnInclude/janaf2TThermoI.H at line 123
    attempt to use janaf2TThermo<EquationOfState> out of temperature range 100 -> 10000;  TTR = 0.498752
--> FOAM Warning : 
    From Foam::scalar Foam::janaf2TThermo<EquationOfState>::limit(Foam::scalar) const [with EquationOfState = Foam::perfectGas<Foam::specie>; Foam::scalar = double]
    in file ../specie/lnInclude/janaf2TThermoI.H at line 123
    attempt to use janaf2TThermo<EquationOfState> out of temperature range 100 -> 10000;  TTR = 0.499875
--> FOAM Warning : 
    From Foam::scalar Foam::janaf2TThermo<EquationOfState>::limit(Foam::scalar) const [with EquationOfState = Foam::perfectGas<Foam::specie>; Foam::scalar = double]
    in file ../specie/lnInclude/janaf2TThermoI.H at line 123
    attempt to use janaf2TThermo<EquationOfState> out of temperature range 100 -> 10000;  TTR = 0.498752
--> FOAM Warning : 
    From Foam::scalar Foam::janaf2TThermo<EquationOfState>::limit(Foam::scalar) const [with EquationOfState = Foam::perfectGas<Foam::specie>; Foam::scalar = double]
    in file ../specie/lnInclude/janaf2TThermoI.H at line 123
    attempt to use janaf2TThermo<EquationOfState> out of temperature range 100 -> 10000;  TTR = 0.499875
--> FOAM Warning : 
    From Foam::scalar Foam::janaf2TThermo<EquationOfState>::limit(Foam::scalar) const [with EquationOfState = Foam::perfectGas<Foam::specie>; Foam::scalar = double]
    in file ../specie/lnInclude/janaf2TThermoI.H at line 123
    attempt to use janaf2TThermo<EquationOfState> out of temperature range 100 -> 10000;  TTR = 0.498752
--> FOAM Warning : 
    From Foam::scalar Foam::janaf2TThermo<EquationOfState>::limit(Foam::scalar) const [with EquationOfState = Foam::perfectGas<Foam::specie>; Foam::scalar = double]
    in file ../specie/lnInclude/janaf2TThermoI.H at line 123
    attempt to use janaf2TThermo<EquationOfState> out of temperature range 100 -> 10000;  TTR = 0.499875
--> FOAM Warning : 
    From Foam::scalar Foam::janaf2TThermo<EquationOfState>::limit(Foam::scalar) const [with EquationOfState = Foam::perfectGas<Foam::specie>; Foam::scalar = double]
    in file ../specie/lnInclude/janaf2TThermoI.H at line 123
    attempt to use janaf2TThermo<EquationOfState> out of temperature range 100 -> 10000;  TTR = 0.498752
--> FOAM Warning : 
    From Foam::scalar Foam::janaf2TThermo<EquationOfState>::limit(Foam::scalar) const [with EquationOfState = Foam::perfectGas<Foam::specie>; Foam::scalar = double]
    in file ../specie/lnInclude/janaf2TThermoI.H at line 123
    attempt to use janaf2TThermo<EquationOfState> out of temperature range 100 -> 10000;  TTR = 0.499875
--> FOAM Warning : 
    From Foam::scalar Foam::janaf2TThermo<EquationOfState>::limit(Foam::scalar) const [with EquationOfState = Foam::perfectGas<Foam::specie>; Foam::scalar = double]
    in file ../specie/lnInclude/janaf2TThermoI.H at line 123
    attempt to use janaf2TThermo<EquationOfState> out of temperature range 100 -> 10000;  TTR = 0.498752
--> FOAM Warning : 
    From Foam::scalar Foam::janaf2TThermo<EquationOfState>::limit(Foam::scalar) const [with EquationOfState = Foam::perfectGas<Foam::specie>; Foam::scalar = double]
    in file ../specie/lnInclude/janaf2TThermoI.H at line 123
    attempt to use janaf2TThermo<EquationOfState> out of temperature range 100 -> 10000;  TTR = 0.499875
--> FOAM Warning : 
    From Foam::scalar Foam::janaf2TThermo<EquationOfState>::limit(Foam::scalar) const [with EquationOfState = Foam::perfectGas<Foam::specie>; Foam::scalar = double]
    in file ../specie/lnInclude/janaf2TThermoI.H at line 123
    attempt to use janaf2TThermo<EquationOfState> out of temperature range 100 -> 10000;  TTR = 0.498752
--> FOAM Warning : 
    From Foam::scalar Foam::janaf2TThermo<EquationOfState>::limit(Foam::scalar) const [with EquationOfState = Foam::perfectGas<Foam::specie>; Foam::scalar = double]
    in file ../specie/lnInclude/janaf2TThermoI.H at line 123
    attempt to use janaf2TThermo<EquationOfState> out of temperature range 100 -> 10000;  TTR = 0.499875
--> FOAM Warning : 
    From Foam::scalar Foam::janaf2TThermo<EquationOfState>::limit(Foam::scalar) const [with EquationOfState = Foam::perfectGas<Foam::specie>; Foam::scalar = double]
    in file ../specie/lnInclude/janaf2TThermoI.H at line 123
    attempt to use janaf2TThermo<EquationOfState> out of temperature range 100 -> 10000;  TTR = 0.498752
--> FOAM Warning : 
    From Foam::scalar Foam::janaf2TThermo<EquationOfState>::limit(Foam::scalar) const [with EquationOfState = Foam::perfectGas<Foam::specie>; Foam::scalar = double]
    in file ../specie/lnInclude/janaf2TThermoI.H at line 123
    attempt to use janaf2TThermo<EquationOfState> out of temperature range 100 -> 10000;  TTR = 0.499875
--> FOAM Warning : 
    From Foam::scalar Foam::janaf2TThermo<EquationOfState>::limit(Foam::scalar) const [with EquationOfState = Foam::perfectGas<Foam::specie>; Foam::scalar = double]
    in file ../specie/lnInclude/janaf2TThermoI.H at line 123
    attempt to use janaf2TThermo<EquationOfState> out of temperature range 100 -> 10000;  TTR = 0.498752
--> FOAM Warning : 
    From Foam::scalar Foam::janaf2TThermo<EquationOfState>::limit(Foam::scalar) const [with EquationOfState = Foam::perfectGas<Foam::specie>; Foam::scalar = double]
    in file ../specie/lnInclude/janaf2TThermoI.H at line 123
    attempt to use janaf2TThermo<EquationOfState> out of temperature range 100 -> 10000;  TTR = 0.499875
--> FOAM Warning : 
    From Foam::scalar Foam::janaf2TThermo<EquationOfState>::limit(Foam::scalar) const [with EquationOfState = Foam::perfectGas<Foam::specie>; Foam::scalar = double]
    in file ../specie/lnInclude/janaf2TThermoI.H at line 123
    attempt to use janaf2TThermo<EquationOfState> out of temperature range 100 -> 10000;  TTR = 0.498752
--> FOAM Warning : 
    From Foam::scalar Foam::janaf2TThermo<EquationOfState>::limit(Foam::scalar) const [with EquationOfState = Foam::perfectGas<Foam::specie>; Foam::scalar = double]
    in file ../specie/lnInclude/janaf2TThermoI.H at line 123
    attempt to use janaf2TThermo<EquationOfState> out of temperature range 100 -> 10000;  TTR = 0.499875
--> FOAM Warning : 
    From Foam::scalar Foam::janaf2TThermo<EquationOfState>::limit(Foam::scalar) const [with EquationOfState = Foam::perfectGas<Foam::specie>; Foam::scalar = double]
    in file ../specie/lnInclude/janaf2TThermoI.H at line 123
    attempt to use janaf2TThermo<EquationOfState> out of temperature range 100 -> 10000;  TTR = 0.498752
--> FOAM Warning : 
    From Foam::scalar Foam::janaf2TThermo<EquationOfState>::limit(Foam::scalar) const [with EquationOfState = Foam::perfectGas<Foam::specie>; Foam::scalar = double]
    in file ../specie/lnInclude/janaf2TThermoI.H at line 123
    attempt to use janaf2TThermo<EquationOfState> out of temperature range 100 -> 10000;  TTR = 0.499875
--> FOAM Warning : 
    From Foam::scalar Foam::janaf2TThermo<EquationOfState>::limit(Foam::scalar) const [with EquationOfState = Foam::perfectGas<Foam::specie>; Foam::scalar = double]
    in file ../specie/lnInclude/janaf2TThermoI.H at line 123
    attempt to use janaf2TThermo<EquationOfState> out of temperature range 100 -> 10000;  TTR = 0.498752
--> FOAM Warning : 
    From Foam::scalar Foam::janaf2TThermo<EquationOfState>::limit(Foam::scalar) const [with EquationOfState = Foam::perfectGas<Foam::specie>; Foam::scalar = double]
    in file ../specie/lnInclude/janaf2TThermoI.H at line 123
    attempt to use janaf2TThermo<EquationOfState> out of temperature range 100 -> 10000;  TTR = 0.499875
--> FOAM Warning : 
    From Foam::scalar Foam::janaf2TThermo<EquationOfState>::limit(Foam::scalar) const [with EquationOfState = Foam::perfectGas<Foam::specie>; Foam::scalar = double]
    in file ../specie/lnInclude/janaf2TThermoI.H at line 123
    attempt to use janaf2TThermo<EquationOfState> out of temperature range 100 -> 10000;  TTR = 0.498752
--> FOAM Warning : 
    From Foam::scalar Foam::janaf2TThermo<EquationOfState>::limit(Foam::scalar) const [with EquationOfState = Foam::perfectGas<Foam::specie>; Foam::scalar = double]
    in file ../specie/lnInclude/janaf2TThermoI.H at line 123
    attempt to use janaf2TThermo<EquationOfState> out of temperature range 100 -> 10000;  TTR = 0.499875
--> FOAM Warning : 
    From Foam::scalar Foam::janaf2TThermo<EquationOfState>::limit(Foam::scalar) const [with EquationOfState = Foam::perfectGas<Foam::specie>; Foam::scalar = double]
    in file ../specie/lnInclude/janaf2TThermoI.H at line 123
    attempt to use janaf2TThermo<EquationOfState> out of temperature range 100 -> 10000;  TTR = 0.498752
--> FOAM Warning : 
    From Foam::scalar Foam::janaf2TThermo<EquationOfState>::limit(Foam::scalar) const [with EquationOfState = Foam::perfectGas<Foam::specie>; Foam::scalar = double]
    in file ../specie/lnInclude/janaf2TThermoI.H at line 123
    attempt to use janaf2TThermo<EquationOfState> out of temperature range 100 -> 10000;  TTR = 0.499875
--> FOAM Warning : 
    From Foam::scalar Foam::janaf2TThermo<EquationOfState>::limit(Foam::scalar) const [with EquationOfState = Foam::perfectGas<Foam::specie>; Foam::scalar = double]
    in file ../specie/lnInclude/janaf2TThermoI.H at line 123
    attempt to use janaf2TThermo<EquationOfState> out of temperature range 100 -> 10000;  TTR = 0.498752
--> FOAM Warning : 
    From Foam::scalar Foam::janaf2TThermo<EquationOfState>::limit(Foam::scalar) const [with EquationOfState = Foam::perfectGas<Foam::specie>; Foam::scalar = double]
    in file ../specie/lnInclude/janaf2TThermoI.H at line 123
    attempt to use janaf2TThermo<EquationOfState> out of temperature range 100 -> 10000;  TTR = 0.499875
--> FOAM Warning : 
    From Foam::scalar Foam::janaf2TThermo<EquationOfState>::limit(Foam::scalar) const [with EquationOfState = Foam::perfectGas<Foam::specie>; Foam::scalar = double]
    in file ../specie/lnInclude/janaf2TThermoI.H at line 123
    attempt to use janaf2TThermo<EquationOfState> out of temperature range 100 -> 10000;  TTR = 0.498752
--> FOAM Warning : 
    From Foam::scalar Foam::janaf2TThermo<EquationOfState>::limit(Foam::scalar) const [with EquationOfState = Foam::perfectGas<Foam::specie>; Foam::scalar = double]
    in file ../specie/lnInclude/janaf2TThermoI.H at line 123
    attempt to use janaf2TThermo<EquationOfState> out of temperature range 100 -> 10000;  TTR = 0.499875
--> FOAM Warning : 
    From Foam::scalar Foam::janaf2TThermo<EquationOfState>::limit(Foam::scalar) const [with EquationOfState = Foam::perfectGas<Foam::specie>; Foam::scalar = double]
    in file ../specie/lnInclude/janaf2TThermoI.H at line 123
    attempt to use janaf2TThermo<EquationOfState> out of temperature range 100 -> 10000;  TTR = 0.498752
--> FOAM Warning : 
    From Foam::scalar Foam::janaf2TThermo<EquationOfState>::limit(Foam::scalar) const [with EquationOfState = Foam::perfectGas<Foam::specie>; Foam::scalar = double]
    in file ../specie/lnInclude/janaf2TThermoI.H at line 123
    attempt to use janaf2TThermo<EquationOfState> out of temperature range 100 -> 10000;  TTR = 0.499875
--> FOAM Warning : 
    From Foam::scalar Foam::janaf2TThermo<EquationOfState>::limit(Foam::scalar) const [with EquationOfState = Foam::perfectGas<Foam::specie>; Foam::scalar = double]
    in file ../specie/lnInclude/janaf2TThermoI.H at line 123
    attempt to use janaf2TThermo<EquationOfState> out of temperature range 100 -> 10000;  TTR = 0.498752
--> FOAM Warning : 
    From Foam::scalar Foam::janaf2TThermo<EquationOfState>::limit(Foam::scalar) const [with EquationOfState = Foam::perfectGas<Foam::specie>; Foam::scalar = double]
    in file ../specie/lnInclude/janaf2TThermoI.H at line 123
    attempt to use janaf2TThermo<EquationOfState> out of temperature range 100 -> 10000;  TTR = 0.499875
--> FOAM Warning : 
    From Foam::scalar Foam::janaf2TThermo<EquationOfState>::limit(Foam::scalar) const [with EquationOfState = Foam::perfectGas<Foam::specie>; Foam::scalar = double]
    in file ../specie/lnInclude/janaf2TThermoI.H at line 123
    attempt to use janaf2TThermo<EquationOfState> out of temperature range 100 -> 10000;  TTR = 0.498752
--> FOAM Warning : 
    From Foam::scalar Foam::janaf2TThermo<EquationOfState>::limit(Foam::scalar) const [with EquationOfState = Foam::perfectGas<Foam::specie>; Foam::scalar = double]
    in file ../specie/lnInclude/janaf2TThermoI.H at line 123
    attempt to use janaf2TThermo<EquationOfState> out of temperature range 100 -> 10000;  TTR = 0.499875
--> FOAM Warning : 
    From Foam::scalar Foam::janaf2TThermo<EquationOfState>::limit(Foam::scalar) const [with EquationOfState = Foam::perfectGas<Foam::specie>; Foam::scalar = double]
    in file ../specie/lnInclude/janaf2TThermoI.H at line 123
    attempt to use janaf2TThermo<EquationOfState> out of temperature range 100 -> 10000;  TTR = 0.498752
--> FOAM Warning : 
    From Foam::scalar Foam::janaf2TThermo<EquationOfState>::limit(Foam::scalar) const [with EquationOfState = Foam::perfectGas<Foam::specie>; Foam::scalar = double]
    in file ../specie/lnInclude/janaf2TThermoI.H at line 123
    attempt to use janaf2TThermo<EquationOfState> out of temperature range 100 -> 10000;  TTR = 0.499875
--> FOAM Warning : 
    From Foam::scalar Foam::janaf2TThermo<EquationOfState>::limit(Foam::scalar) const [with EquationOfState = Foam::perfectGas<Foam::specie>; Foam::scalar = double]
    in file ../specie/lnInclude/janaf2TThermoI.H at line 123
    attempt to use janaf2TThermo<EquationOfState> out of temperature range 100 -> 10000;  TTR = 0.498752
--> FOAM Warning : 
    From Foam::scalar Foam::janaf2TThermo<EquationOfState>::limit(Foam::scalar) const [with EquationOfState = Foam::perfectGas<Foam::specie>; Foam::scalar = double]
    in file ../specie/lnInclude/janaf2TThermoI.H at line 123
    attempt to use janaf2TThermo<EquationOfState> out of temperature range 100 -> 10000;  TTR = 0.499875
--> FOAM Warning : 
    From Foam::scalar Foam::janaf2TThermo<EquationOfState>::limit(Foam::scalar) const [with EquationOfState = Foam::perfectGas<Foam::specie>; Foam::scalar = double]
    in file ../specie/lnInclude/janaf2TThermoI.H at line 123
    attempt to use janaf2TThermo<EquationOfState> out of temperature range 100 -> 10000;  TTR = 0.498752
--> FOAM Warning : 
    From Foam::scalar Foam::janaf2TThermo<EquationOfState>::limit(Foam::scalar) const [with EquationOfState = Foam::perfectGas<Foam::specie>; Foam::scalar = double]
    in file ../specie/lnInclude/janaf2TThermoI.H at line 123
    attempt to use janaf2TThermo<EquationOfState> out of temperature range 100 -> 10000;  TTR = 0.499875
--> FOAM Warning : 
    From Foam::scalar Foam::janaf2TThermo<EquationOfState>::limit(Foam::scalar) const [with EquationOfState = Foam::perfectGas<Foam::specie>; Foam::scalar = double]
    in file ../specie/lnInclude/janaf2TThermoI.H at line 123
    attempt to use janaf2TThermo<EquationOfState> out of temperature range 100 -> 10000;  TTR = 0.498752
--> FOAM Warning : 
    From Foam::scalar Foam::janaf2TThermo<EquationOfState>::limit(Foam::scalar) const [with EquationOfState = Foam::perfectGas<Foam::specie>; Foam::scalar = double]
    in file ../specie/lnInclude/janaf2TThermoI.H at line 123
    attempt to use janaf2TThermo<EquationOfState> out of temperature range 100 -> 10000;  TTR = 0.499875
--> FOAM Warning : 
    From Foam::scalar Foam::janaf2TThermo<EquationOfState>::limit(Foam::scalar) const [with EquationOfState = Foam::perfectGas<Foam::specie>; Foam::scalar = double]
    in file ../specie/lnInclude/janaf2TThermoI.H at line 123
    attempt to use janaf2TThermo<EquationOfState> out of temperature range 100 -> 10000;  TTR = 0.498752
--> FOAM Warning : 
    From Foam::scalar Foam::janaf2TThermo<EquationOfState>::limit(Foam::scalar) const [with EquationOfState = Foam::perfectGas<Foam::specie>; Foam::scalar = double]
    in file ../specie/lnInclude/janaf2TThermoI.H at line 123
    attempt to use janaf2TThermo<EquationOfState> out of temperature range 100 -> 10000;  TTR = 0.499875
--> FOAM Warning : 
    From Foam::scalar Foam::janaf2TThermo<EquationOfState>::limit(Foam::scalar) const [with EquationOfState = Foam::perfectGas<Foam::specie>; Foam::scalar = double]
    in file ../specie/lnInclude/janaf2TThermoI.H at line 123
    attempt to use janaf2TThermo<EquationOfState> out of temperature range 100 -> 10000;  TTR = 0.498752
--> FOAM Warning : 
    From Foam::scalar Foam::janaf2TThermo<EquationOfState>::limit(Foam::scalar) const [with EquationOfState = Foam::perfectGas<Foam::specie>; Foam::scalar = double]
    in file ../specie/lnInclude/janaf2TThermoI.H at line 123
    attempt to use janaf2TThermo<EquationOfState> out of temperature range 100 -> 10000;  TTR = 0.499875
--> FOAM Warning : 
    From Foam::scalar Foam::janaf2TThermo<EquationOfState>::limit(Foam::scalar) const [with EquationOfState = Foam::perfectGas<Foam::specie>; Foam::scalar = double]
    in file ../specie/lnInclude/janaf2TThermoI.H at line 123
    attempt to use janaf2TThermo<EquationOfState> out of temperature range 100 -> 10000;  TTR = 0.498752
--> FOAM Warning : 
    From Foam::scalar Foam::janaf2TThermo<EquationOfState>::limit(Foam::scalar) const [with EquationOfState = Foam::perfectGas<Foam::specie>; Foam::scalar = double]
    in file ../specie/lnInclude/janaf2TThermoI.H at line 123
    attempt to use janaf2TThermo<EquationOfState> out of temperature range 100 -> 10000;  TTR = 0.499875
--> FOAM Warning : 
    From Foam::scalar Foam::janaf2TThermo<EquationOfState>::limit(Foam::scalar) const [with EquationOfState = Foam::perfectGas<Foam::specie>; Foam::scalar = double]
    in file ../specie/lnInclude/janaf2TThermoI.H at line 123
    attempt to use janaf2TThermo<EquationOfState> out of temperature range 100 -> 10000;  TTR = 0.498752
--> FOAM Warning : 
    From Foam::scalar Foam::janaf2TThermo<EquationOfState>::limit(Foam::scalar) const [with EquationOfState = Foam::perfectGas<Foam::specie>; Foam::scalar = double]
    in file ../specie/lnInclude/janaf2TThermoI.H at line 123
    attempt to use janaf2TThermo<EquationOfState> out of temperature range 100 -> 10000;  TTR = 0.499875
--> FOAM Warning : 
    From Foam::scalar Foam::janaf2TThermo<EquationOfState>::limit(Foam::scalar) const [with EquationOfState = Foam::perfectGas<Foam::specie>; Foam::scalar = double]
    in file ../specie/lnInclude/janaf2TThermoI.H at line 123
    attempt to use janaf2TThermo<EquationOfState> out of temperature range 100 -> 10000;  TTR = 0.498752
--> FOAM Warning : 
    From Foam::scalar Foam::janaf2TThermo<EquationOfState>::limit(Foam::scalar) const [with EquationOfState = Foam::perfectGas<Foam::specie>; Foam::scalar = double]
    in file ../specie/lnInclude/janaf2TThermoI.H at line 123
    attempt to use janaf2TThermo<EquationOfState> out of temperature range 100 -> 10000;  TTR = 0.499875
--> FOAM Warning : 
    From Foam::scalar Foam::janaf2TThermo<EquationOfState>::limit(Foam::scalar) const [with EquationOfState = Foam::perfectGas<Foam::specie>; Foam::scalar = double]
    in file ../specie/lnInclude/janaf2TThermoI.H at line 123
    attempt to use janaf2TThermo<EquationOfState> out of temperature range 100 -> 10000;  TTR = 0.498752
--> FOAM Warning : 
    From Foam::scalar Foam::janaf2TThermo<EquationOfState>::limit(Foam::scalar) const [with EquationOfState = Foam::perfectGas<Foam::specie>; Foam::scalar = double]
    in file ../specie/lnInclude/janaf2TThermoI.H at line 123
    attempt to use janaf2TThermo<EquationOfState> out of temperature range 100 -> 10000;  TTR = 0.499875
--> FOAM Warning : 
    From Foam::scalar Foam::janaf2TThermo<EquationOfState>::limit(Foam::scalar) const [with EquationOfState = Foam::perfectGas<Foam::specie>; Foam::scalar = double]
    in file ../specie/lnInclude/janaf2TThermoI.H at line 123
    attempt to use janaf2TThermo<EquationOfState> out of temperature range 100 -> 10000;  TTR = 0.498752
--> FOAM Warning : 
    From Foam::scalar Foam::janaf2TThermo<EquationOfState>::limit(Foam::scalar) const [with EquationOfState = Foam::perfectGas<Foam::specie>; Foam::scalar = double]
    in file ../specie/lnInclude/janaf2TThermoI.H at line 123
    attempt to use janaf2TThermo<EquationOfState> out of temperature range 100 -> 10000;  TTR = 0.499875
--> FOAM Warning : 
    From Foam::scalar Foam::janaf2TThermo<EquationOfState>::limit(Foam::scalar) const [with EquationOfState = Foam::perfectGas<Foam::specie>; Foam::scalar = double]
    in file ../specie/lnInclude/janaf2TThermoI.H at line 123
    attempt to use janaf2TThermo<EquationOfState> out of temperature range 100 -> 10000;  TTR = 0.498752
--> FOAM Warning : 
    From Foam::scalar Foam::janaf2TThermo<EquationOfState>::limit(Foam::scalar) const [with EquationOfState = Foam::perfectGas<Foam::specie>; Foam::scalar = double]
    in file ../specie/lnInclude/janaf2TThermoI.H at line 123
    attempt to use janaf2TThermo<EquationOfState> out of temperature range 100 -> 10000;  TTR = 0.499875
--> FOAM Warning : 
    From Foam::scalar Foam::janaf2TThermo<EquationOfState>::limit(Foam::scalar) const [with EquationOfState = Foam::perfectGas<Foam::specie>; Foam::scalar = double]
    in file ../specie/lnInclude/janaf2TThermoI.H at line 123
    attempt to use janaf2TThermo<EquationOfState> out of temperature range 100 -> 10000;  TTR = 0.498752
--> FOAM Warning : 
    From Foam::scalar Foam::janaf2TThermo<EquationOfState>::limit(Foam::scalar) const [with EquationOfState = Foam::perfectGas<Foam::specie>; Foam::scalar = double]
    in file ../specie/lnInclude/janaf2TThermoI.H at line 123
    attempt to use janaf2TThermo<EquationOfState> out of temperature range 100 -> 10000;  TTR = 0.499875
--> FOAM Warning : 
    From Foam::scalar Foam::janaf2TThermo<EquationOfState>::limit(Foam::scalar) const [with EquationOfState = Foam::perfectGas<Foam::specie>; Foam::scalar = double]
    in file ../specie/lnInclude/janaf2TThermoI.H at line 123
    attempt to use janaf2TThermo<EquationOfState> out of temperature range 100 -> 10000;  TTR = 0.498752
--> FOAM Warning : 
    From Foam::scalar Foam::janaf2TThermo<EquationOfState>::limit(Foam::scalar) const [with EquationOfState = Foam::perfectGas<Foam::specie>; Foam::scalar = double]
    in file ../specie/lnInclude/janaf2TThermoI.H at line 123
    attempt to use janaf2TThermo<EquationOfState> out of temperature range 100 -> 10000;  TTR = 0.499875
--> FOAM Warning : 
    From Foam::scalar Foam::janaf2TThermo<EquationOfState>::limit(Foam::scalar) const [with EquationOfState = Foam::perfectGas<Foam::specie>; Foam::scalar = double]
    in file ../specie/lnInclude/janaf2TThermoI.H at line 123
    attempt to use janaf2TThermo<EquationOfState> out of temperature range 100 -> 10000;  TTR = 0.498752
--> FOAM Warning : 
    From Foam::scalar Foam::janaf2TThermo<EquationOfState>::limit(Foam::scalar) const [with EquationOfState = Foam::perfectGas<Foam::specie>; Foam::scalar = double]
    in file ../specie/lnInclude/janaf2TThermoI.H at line 123
    attempt to use janaf2TThermo<EquationOfState> out of temperature range 100 -> 10000;  TTR = 0.499875
--> FOAM Warning : 
    From Foam::scalar Foam::janaf2TThermo<EquationOfState>::limit(Foam::scalar) const [with EquationOfState = Foam::perfectGas<Foam::specie>; Foam::scalar = double]
    in file ../specie/lnInclude/janaf2TThermoI.H at line 123
    attempt to use janaf2TThermo<EquationOfState> out of temperature range 100 -> 10000;  TTR = 0.498752
--> FOAM Warning : 
    From Foam::scalar Foam::janaf2TThermo<EquationOfState>::limit(Foam::scalar) const [with EquationOfState = Foam::perfectGas<Foam::specie>; Foam::scalar = double]
    in file ../specie/lnInclude/janaf2TThermoI.H at line 123
    attempt to use janaf2TThermo<EquationOfState> out of temperature range 100 -> 10000;  TTR = 0.499875
--> FOAM Warning : 
    From Foam::scalar Foam::janaf2TThermo<EquationOfState>::limit(Foam::scalar) const [with EquationOfState = Foam::perfectGas<Foam::specie>; Foam::scalar = double]
    in file ../specie/lnInclude/janaf2TThermoI.H at line 123
    attempt to use janaf2TThermo<EquationOfState> out of temperature range 100 -> 10000;  TTR = 0.498752
--> FOAM Warning : 
    From Foam::scalar Foam::janaf2TThermo<EquationOfState>::limit(Foam::scalar) const [with EquationOfState = Foam::perfectGas<Foam::specie>; Foam::scalar = double]
    in file ../specie/lnInclude/janaf2TThermoI.H at line 123
    attempt to use janaf2TThermo<EquationOfState> out of temperature range 100 -> 10000;  TTR = 0.499875
--> FOAM Warning : 
    From Foam::scalar Foam::janaf2TThermo<EquationOfState>::limit(Foam::scalar) const [with EquationOfState = Foam::perfectGas<Foam::specie>; Foam::scalar = double]
    in file ../specie/lnInclude/janaf2TThermoI.H at line 123
    attempt to use janaf2TThermo<EquationOfState> out of temperature range 100 -> 10000;  TTR = 0.498752
--> FOAM Warning : 
    From Foam::scalar Foam::janaf2TThermo<EquationOfState>::limit(Foam::scalar) const [with EquationOfState = Foam::perfectGas<Foam::specie>; Foam::scalar = double]
    in file ../specie/lnInclude/janaf2TThermoI.H at line 123
    attempt to use janaf2TThermo<EquationOfState> out of temperature range 100 -> 10000;  TTR = 0.499875
--> FOAM Warning : 
    From Foam::scalar Foam::janaf2TThermo<EquationOfState>::limit(Foam::scalar) const [with EquationOfState = Foam::perfectGas<Foam::specie>; Foam::scalar = double]
    in file ../specie/lnInclude/janaf2TThermoI.H at line 123
    attempt to use janaf2TThermo<EquationOfState> out of temperature range 100 -> 10000;  TTR = 0.498752
--> FOAM Warning : 
    From Foam::scalar Foam::janaf2TThermo<EquationOfState>::limit(Foam::scalar) const [with EquationOfState = Foam::perfectGas<Foam::specie>; Foam::scalar = double]
    in file ../specie/lnInclude/janaf2TThermoI.H at line 123
    attempt to use janaf2TThermo<EquationOfState> out of temperature range 100 -> 10000;  TTR = 0.499875
--> FOAM Warning : 
    From Foam::scalar Foam::janaf2TThermo<EquationOfState>::limit(Foam::scalar) const [with EquationOfState = Foam::perfectGas<Foam::specie>; Foam::scalar = double]
    in file ../specie/lnInclude/janaf2TThermoI.H at line 123
    attempt to use janaf2TThermo<EquationOfState> out of temperature range 100 -> 10000;  TTR = 0.498752
--> FOAM Warning : 
    From Foam::scalar Foam::janaf2TThermo<EquationOfState>::limit(Foam::scalar) const [with EquationOfState = Foam::perfectGas<Foam::specie>; Foam::scalar = double]
    in file ../specie/lnInclude/janaf2TThermoI.H at line 123
    attempt to use janaf2TThermo<EquationOfState> out of temperature range 100 -> 10000;  TTR = 0.499875
--> FOAM Warning : 
    From Foam::scalar Foam::janaf2TThermo<EquationOfState>::limit(Foam::scalar) const [with EquationOfState = Foam::perfectGas<Foam::specie>; Foam::scalar = double]
    in file ../specie/lnInclude/janaf2TThermoI.H at line 123
    attempt to use janaf2TThermo<EquationOfState> out of temperature range 100 -> 10000;  TTR = 0.498752
--> FOAM Warning : 
    From Foam::scalar Foam::janaf2TThermo<EquationOfState>::limit(Foam::scalar) const [with EquationOfState = Foam::perfectGas<Foam::specie>; Foam::scalar = double]
    in file ../specie/lnInclude/janaf2TThermoI.H at line 123
    attempt to use janaf2TThermo<EquationOfState> out of temperature range 100 -> 10000;  TTR = 0.499875
--> FOAM Warning : 
    From Foam::scalar Foam::janaf2TThermo<EquationOfState>::limit(Foam::scalar) const [with EquationOfState = Foam::perfectGas<Foam::specie>; Foam::scalar = double]
    in file ../specie/lnInclude/janaf2TThermoI.H at line 123
    attempt to use janaf2TThermo<EquationOfState> out of temperature range 100 -> 10000;  TTR = 0.498752
--> FOAM Warning : 
    From Foam::scalar Foam::janaf2TThermo<EquationOfState>::limit(Foam::scalar) const [with EquationOfState = Foam::perfectGas<Foam::specie>; Foam::scalar = double]
    in file ../specie/lnInclude/janaf2TThermoI.H at line 123
    attempt to use janaf2TThermo<EquationOfState> out of temperature range 100 -> 10000;  TTR = 0.499875
--> FOAM Warning : 
    From Foam::scalar Foam::janaf2TThermo<EquationOfState>::limit(Foam::scalar) const [with EquationOfState = Foam::perfectGas<Foam::specie>; Foam::scalar = double]
    in file ../specie/lnInclude/janaf2TThermoI.H at line 123
    attempt to use janaf2TThermo<EquationOfState> out of temperature range 100 -> 10000;  TTR = 0.498752
--> FOAM Warning : 
    From Foam::scalar Foam::janaf2TThermo<EquationOfState>::limit(Foam::scalar) const [with EquationOfState = Foam::perfectGas<Foam::specie>; Foam::scalar = double]
    in file ../specie/lnInclude/janaf2TThermoI.H at line 123
    attempt to use janaf2TThermo<EquationOfState> out of temperature range 100 -> 10000;  TTR = 0.499875
--> FOAM Warning : 
    From Foam::scalar Foam::janaf2TThermo<EquationOfState>::limit(Foam::scalar) const [with EquationOfState = Foam::perfectGas<Foam::specie>; Foam::scalar = double]
    in file ../specie/lnInclude/janaf2TThermoI.H at line 123
    attempt to use janaf2TThermo<EquationOfState> out of temperature range 100 -> 10000;  TTR = 0.498752
--> FOAM Warning : 
    From Foam::scalar Foam::janaf2TThermo<EquationOfState>::limit(Foam::scalar) const [with EquationOfState = Foam::perfectGas<Foam::specie>; Foam::scalar = double]
    in file ../specie/lnInclude/janaf2TThermoI.H at line 123
    attempt to use janaf2TThermo<EquationOfState> out of temperature range 100 -> 10000;  TTR = 0.499875
--> FOAM Warning : 
    From Foam::scalar Foam::janaf2TThermo<EquationOfState>::limit(Foam::scalar) const [with EquationOfState = Foam::perfectGas<Foam::specie>; Foam::scalar = double]
    in file ../specie/lnInclude/janaf2TThermoI.H at line 123
    attempt to use janaf2TThermo<EquationOfState> out of temperature range 100 -> 10000;  TTR = 0.498752
--> FOAM Warning : 
    From Foam::scalar Foam::janaf2TThermo<EquationOfState>::limit(Foam::scalar) const [with EquationOfState = Foam::perfectGas<Foam::specie>; Foam::scalar = double]
    in file ../specie/lnInclude/janaf2TThermoI.H at line 123
    attempt to use janaf2TThermo<EquationOfState> out of temperature range 100 -> 10000;  TTR = 0.499875
--> FOAM Warning : 
    From Foam::scalar Foam::janaf2TThermo<EquationOfState>::limit(Foam::scalar) const [with EquationOfState = Foam::perfectGas<Foam::specie>; Foam::scalar = double]
    in file ../specie/lnInclude/janaf2TThermoI.H at line 123
    attempt to use janaf2TThermo<EquationOfState> out of temperature range 100 -> 10000;  TTR = 0.498752
--> FOAM Warning : 
    From Foam::scalar Foam::janaf2TThermo<EquationOfState>::limit(Foam::scalar) const [with EquationOfState = Foam::perfectGas<Foam::specie>; Foam::scalar = double]
    in file ../specie/lnInclude/janaf2TThermoI.H at line 123
    attempt to use janaf2TThermo<EquationOfState> out of temperature range 100 -> 10000;  TTR = 0.499875
--> FOAM Warning : 
    From Foam::scalar Foam::janaf2TThermo<EquationOfState>::limit(Foam::scalar) const [with EquationOfState = Foam::perfectGas<Foam::specie>; Foam::scalar = double]
    in file ../specie/lnInclude/janaf2TThermoI.H at line 123
    attempt to use janaf2TThermo<EquationOfState> out of temperature range 100 -> 10000;  TTR = 0.498752
--> FOAM Warning : 
    From Foam::scalar Foam::janaf2TThermo<EquationOfState>::limit(Foam::scalar) const [with EquationOfState = Foam::perfectGas<Foam::specie>; Foam::scalar = double]
    in file ../specie/lnInclude/janaf2TThermoI.H at line 123
    attempt to use janaf2TThermo<EquationOfState> out of temperature range 100 -> 10000;  TTR = 0.499875
--> FOAM Warning : 
    From Foam::scalar Foam::janaf2TThermo<EquationOfState>::limit(Foam::scalar) const [with EquationOfState = Foam::perfectGas<Foam::specie>; Foam::scalar = double]
    in file ../specie/lnInclude/janaf2TThermoI.H at line 123
    attempt to use janaf2TThermo<EquationOfState> out of temperature range 100 -> 10000;  TTR = 0.498752
--> FOAM Warning : 
    From Foam::scalar Foam::janaf2TThermo<EquationOfState>::limit(Foam::scalar) const [with EquationOfState = Foam::perfectGas<Foam::specie>; Foam::scalar = double]
    in file ../specie/lnInclude/janaf2TThermoI.H at line 123
    attempt to use janaf2TThermo<EquationOfState> out of temperature range 100 -> 10000;  TTR = 0.499875
--> FOAM Warning : 
    From Foam::scalar Foam::janaf2TThermo<EquationOfState>::limit(Foam::scalar) const [with EquationOfState = Foam::perfectGas<Foam::specie>; Foam::scalar = double]
    in file ../specie/lnInclude/janaf2TThermoI.H at line 123
    attempt to use janaf2TThermo<EquationOfState> out of temperature range 100 -> 10000;  TTR = 0.498752
--> FOAM Warning : 
    From Foam::scalar Foam::janaf2TThermo<EquationOfState>::limit(Foam::scalar) const [with EquationOfState = Foam::perfectGas<Foam::specie>; Foam::scalar = double]
    in file ../specie/lnInclude/janaf2TThermoI.H at line 123
    attempt to use janaf2TThermo<EquationOfState> out of temperature range 100 -> 10000;  TTR = 0.499875
--> FOAM Warning : 
    From Foam::scalar Foam::janaf2TThermo<EquationOfState>::limit(Foam::scalar) const [with EquationOfState = Foam::perfectGas<Foam::specie>; Foam::scalar = double]
    in file ../specie/lnInclude/janaf2TThermoI.H at line 123
    attempt to use janaf2TThermo<EquationOfState> out of temperature range 100 -> 10000;  TTR = 0.498752
--> FOAM Warning : 
    From Foam::scalar Foam::janaf2TThermo<EquationOfState>::limit(Foam::scalar) const [with EquationOfState = Foam::perfectGas<Foam::specie>; Foam::scalar = double]
    in file ../specie/lnInclude/janaf2TThermoI.H at line 123
    attempt to use janaf2TThermo<EquationOfState> out of temperature range 100 -> 10000;  TTR = 0.499875
--> FOAM Warning : 
    From Foam::scalar Foam::janaf2TThermo<EquationOfState>::limit(Foam::scalar) const [with EquationOfState = Foam::perfectGas<Foam::specie>; Foam::scalar = double]
    in file ../specie/lnInclude/janaf2TThermoI.H at line 123
    attempt to use janaf2TThermo<EquationOfState> out of temperature range 100 -> 10000;  TTR = 0.498752
--> FOAM Warning : 
    From Foam::scalar Foam::janaf2TThermo<EquationOfState>::limit(Foam::scalar) const [with EquationOfState = Foam::perfectGas<Foam::specie>; Foam::scalar = double]
    in file ../specie/lnInclude/janaf2TThermoI.H at line 123
    attempt to use janaf2TThermo<EquationOfState> out of temperature range 100 -> 10000;  TTR = 0.499875
--> FOAM Warning : 
    From Foam::scalar Foam::janaf2TThermo<EquationOfState>::limit(Foam::scalar) const [with EquationOfState = Foam::perfectGas<Foam::specie>; Foam::scalar = double]
    in file ../specie/lnInclude/janaf2TThermoI.H at line 123
    attempt to use janaf2TThermo<EquationOfState> out of temperature range 100 -> 10000;  TTR = 0.498752
--> FOAM Warning : 
    From Foam::scalar Foam::janaf2TThermo<EquationOfState>::limit(Foam::scalar) const [with EquationOfState = Foam::perfectGas<Foam::specie>; Foam::scalar = double]
    in file ../specie/lnInclude/janaf2TThermoI.H at line 123
    attempt to use janaf2TThermo<EquationOfState> out of temperature range 100 -> 10000;  TTR = 0.499875
--> FOAM Warning : 
    From Foam::scalar Foam::janaf2TThermo<EquationOfState>::limit(Foam::scalar) const [with EquationOfState = Foam::perfectGas<Foam::specie>; Foam::scalar = double]
    in file ../specie/lnInclude/janaf2TThermoI.H at line 123
    attempt to use janaf2TThermo<EquationOfState> out of temperature range 100 -> 10000;  TTR = 0.498752
--> FOAM Warning : 
    From Foam::scalar Foam::janaf2TThermo<EquationOfState>::limit(Foam::scalar) const [with EquationOfState = Foam::perfectGas<Foam::specie>; Foam::scalar = double]
    in file ../specie/lnInclude/janaf2TThermoI.H at line 123
    attempt to use janaf2TThermo<EquationOfState> out of temperature range 100 -> 10000;  TTR = 0.499875
--> FOAM Warning : 
    From Foam::scalar Foam::janaf2TThermo<EquationOfState>::limit(Foam::scalar) const [with EquationOfState = Foam::perfectGas<Foam::specie>; Foam::scalar = double]
    in file ../specie/lnInclude/janaf2TThermoI.H at line 123
    attempt to use janaf2TThermo<EquationOfState> out of temperature range 100 -> 10000;  TTR = 0.498752
--> FOAM Warning : 
    From Foam::scalar Foam::janaf2TThermo<EquationOfState>::limit(Foam::scalar) const [with EquationOfState = Foam::perfectGas<Foam::specie>; Foam::scalar = double]
    in file ../specie/lnInclude/janaf2TThermoI.H at line 123
    attempt to use janaf2TThermo<EquationOfState> out of temperature range 100 -> 10000;  TTR = 0.499875
--> FOAM Warning : 
    From Foam::scalar Foam::janaf2TThermo<EquationOfState>::limit(Foam::scalar) const [with EquationOfState = Foam::perfectGas<Foam::specie>; Foam::scalar = double]
    in file ../specie/lnInclude/janaf2TThermoI.H at line 123
    attempt to use janaf2TThermo<EquationOfState> out of temperature range 100 -> 10000;  TTR = 0.498752
--> FOAM Warning : 
    From Foam::scalar Foam::janaf2TThermo<EquationOfState>::limit(Foam::scalar) const [with EquationOfState = Foam::perfectGas<Foam::specie>; Foam::scalar = double]
    in file ../specie/lnInclude/janaf2TThermoI.H at line 123
    attempt to use janaf2TThermo<EquationOfState> out of temperature range 100 -> 10000;  TTR = 0.499875
--> FOAM Warning : 
    From Foam::scalar Foam::janaf2TThermo<EquationOfState>::limit(Foam::scalar) const [with EquationOfState = Foam::perfectGas<Foam::specie>; Foam::scalar = double]
    in file ../specie/lnInclude/janaf2TThermoI.H at line 123
    attempt to use janaf2TThermo<EquationOfState> out of temperature range 100 -> 10000;  TTR = 0.498752
--> FOAM Warning : 
    From Foam::scalar Foam::janaf2TThermo<EquationOfState>::limit(Foam::scalar) const [with EquationOfState = Foam::perfectGas<Foam::specie>; Foam::scalar = double]
    in file ../specie/lnInclude/janaf2TThermoI.H at line 123
    attempt to use janaf2TThermo<EquationOfState> out of temperature range 100 -> 10000;  TTR = 0.499875
--> FOAM Warning : 
    From Foam::scalar Foam::janaf2TThermo<EquationOfState>::limit(Foam::scalar) const [with EquationOfState = Foam::perfectGas<Foam::specie>; Foam::scalar = double]
    in file ../specie/lnInclude/janaf2TThermoI.H at line 123
    attempt to use janaf2TThermo<EquationOfState> out of temperature range 100 -> 10000;  TTR = 0.498752
--> FOAM Warning : 
    From Foam::scalar Foam::janaf2TThermo<EquationOfState>::limit(Foam::scalar) const [with EquationOfState = Foam::perfectGas<Foam::specie>; Foam::scalar = double]
    in file ../specie/lnInclude/janaf2TThermoI.H at line 123
    attempt to use janaf2TThermo<EquationOfState> out of temperature range 100 -> 10000;  TTR = 0.499875
--> FOAM Warning : 
    From Foam::scalar Foam::janaf2TThermo<EquationOfState>::limit(Foam::scalar) const [with EquationOfState = Foam::perfectGas<Foam::specie>; Foam::scalar = double]
    in file ../specie/lnInclude/janaf2TThermoI.H at line 123
    attempt to use janaf2TThermo<EquationOfState> out of temperature range 100 -> 10000;  TTR = 0.498752
--> FOAM Warning : 
    From Foam::scalar Foam::janaf2TThermo<EquationOfState>::limit(Foam::scalar) const [with EquationOfState = Foam::perfectGas<Foam::specie>; Foam::scalar = double]
    in file ../specie/lnInclude/janaf2TThermoI.H at line 123
    attempt to use janaf2TThermo<EquationOfState> out of temperature range 100 -> 10000;  TTR = 0.499875
--> FOAM Warning : 
    From Foam::scalar Foam::janaf2TThermo<EquationOfState>::limit(Foam::scalar) const [with EquationOfState = Foam::perfectGas<Foam::specie>; Foam::scalar = double]
    in file ../specie/lnInclude/janaf2TThermoI.H at line 123
    attempt to use janaf2TThermo<EquationOfState> out of temperature range 100 -> 10000;  TTR = 0.498752
--> FOAM Warning : 
    From Foam::scalar Foam::janaf2TThermo<EquationOfState>::limit(Foam::scalar) const [with EquationOfState = Foam::perfectGas<Foam::specie>; Foam::scalar = double]
    in file ../specie/lnInclude/janaf2TThermoI.H at line 123
    attempt to use janaf2TThermo<EquationOfState> out of temperature range 100 -> 10000;  TTR = 0.499875
--> FOAM Warning : 
    From Foam::scalar Foam::janaf2TThermo<EquationOfState>::limit(Foam::scalar) const [with EquationOfState = Foam::perfectGas<Foam::specie>; Foam::scalar = double]
    in file ../specie/lnInclude/janaf2TThermoI.H at line 123
    attempt to use janaf2TThermo<EquationOfState> out of temperature range 100 -> 10000;  TTR = 0.498752
--> FOAM Warning : 
    From Foam::scalar Foam::janaf2TThermo<EquationOfState>::limit(Foam::scalar) const [with EquationOfState = Foam::perfectGas<Foam::specie>; Foam::scalar = double]
    in file ../specie/lnInclude/janaf2TThermoI.H at line 123
    attempt to use janaf2TThermo<EquationOfState> out of temperature range 100 -> 10000;  TTR = 0.499875
--> FOAM Warning : 
    From Foam::scalar Foam::janaf2TThermo<EquationOfState>::limit(Foam::scalar) const [with EquationOfState = Foam::perfectGas<Foam::specie>; Foam::scalar = double]
    in file ../specie/lnInclude/janaf2TThermoI.H at line 123
    attempt to use janaf2TThermo<EquationOfState> out of temperature range 100 -> 10000;  TTR = 0.498752
--> FOAM Warning : 
    From Foam::scalar Foam::janaf2TThermo<EquationOfState>::limit(Foam::scalar) const [with EquationOfState = Foam::perfectGas<Foam::specie>; Foam::scalar = double]
    in file ../specie/lnInclude/janaf2TThermoI.H at line 123
    attempt to use janaf2TThermo<EquationOfState> out of temperature range 100 -> 10000;  TTR = 0.499875
--> FOAM Warning : 
    From Foam::scalar Foam::janaf2TThermo<EquationOfState>::limit(Foam::scalar) const [with EquationOfState = Foam::perfectGas<Foam::specie>; Foam::scalar = double]
    in file ../specie/lnInclude/janaf2TThermoI.H at line 123
    attempt to use janaf2TThermo<EquationOfState> out of temperature range 100 -> 10000;  TTR = 0.498752
--> FOAM Warning : 
    From Foam::scalar Foam::janaf2TThermo<EquationOfState>::limit(Foam::scalar) const [with EquationOfState = Foam::perfectGas<Foam::specie>; Foam::scalar = double]
    in file ../specie/lnInclude/janaf2TThermoI.H at line 123
    attempt to use janaf2TThermo<EquationOfState> out of temperature range 100 -> 10000;  TTR = 0.499875
--> FOAM Warning : 
    From Foam::scalar Foam::janaf2TThermo<EquationOfState>::limit(Foam::scalar) const [with EquationOfState = Foam::perfectGas<Foam::specie>; Foam::scalar = double]
    in file ../specie/lnInclude/janaf2TThermoI.H at line 123
    attempt to use janaf2TThermo<EquationOfState> out of temperature range 100 -> 10000;  TTR = 0.498752
--> FOAM Warning : 
    From Foam::scalar Foam::janaf2TThermo<EquationOfState>::limit(Foam::scalar) const [with EquationOfState = Foam::perfectGas<Foam::specie>; Foam::scalar = double]
    in file ../specie/lnInclude/janaf2TThermoI.H at line 123
    attempt to use janaf2TThermo<EquationOfState> out of temperature range 100 -> 10000;  TTR = 0.499875
--> FOAM Warning : 
    From Foam::scalar Foam::janaf2TThermo<EquationOfState>::limit(Foam::scalar) const [with EquationOfState = Foam::perfectGas<Foam::specie>; Foam::scalar = double]
    in file ../specie/lnInclude/janaf2TThermoI.H at line 123
    attempt to use janaf2TThermo<EquationOfState> out of temperature range 100 -> 10000;  TTR = 0.498752
--> FOAM Warning : 
    From Foam::scalar Foam::janaf2TThermo<EquationOfState>::limit(Foam::scalar) const [with EquationOfState = Foam::perfectGas<Foam::specie>; Foam::scalar = double]
    in file ../specie/lnInclude/janaf2TThermoI.H at line 123
    attempt to use janaf2TThermo<EquationOfState> out of temperature range 100 -> 10000;  TTR = 0.499875
--> FOAM Warning : 
    From Foam::scalar Foam::janaf2TThermo<EquationOfState>::limit(Foam::scalar) const [with EquationOfState = Foam::perfectGas<Foam::specie>; Foam::scalar = double]
    in file ../specie/lnInclude/janaf2TThermoI.H at line 123
    attempt to use janaf2TThermo<EquationOfState> out of temperature range 100 -> 10000;  TTR = 0.498752
--> FOAM Warning : 
    From Foam::scalar Foam::janaf2TThermo<EquationOfState>::limit(Foam::scalar) const [with EquationOfState = Foam::perfectGas<Foam::specie>; Foam::scalar = double]
    in file ../specie/lnInclude/janaf2TThermoI.H at line 123
    attempt to use janaf2TThermo<EquationOfState> out of temperature range 100 -> 10000;  TTR = 0.499875
--> FOAM Warning : 
    From Foam::scalar Foam::janaf2TThermo<EquationOfState>::limit(Foam::scalar) const [with EquationOfState = Foam::perfectGas<Foam::specie>; Foam::scalar = double]
    in file ../specie/lnInclude/janaf2TThermoI.H at line 123
    attempt to use janaf2TThermo<EquationOfState> out of temperature range 100 -> 10000;  TTR = 0.498752
--> FOAM Warning : 
    From Foam::scalar Foam::janaf2TThermo<EquationOfState>::limit(Foam::scalar) const [with EquationOfState = Foam::perfectGas<Foam::specie>; Foam::scalar = double]
    in file ../specie/lnInclude/janaf2TThermoI.H at line 123
    attempt to use janaf2TThermo<EquationOfState> out of temperature range 100 -> 10000;  TTR = 0.499875
--> FOAM Warning : 
    From Foam::scalar Foam::janaf2TThermo<EquationOfState>::limit(Foam::scalar) const [with EquationOfState = Foam::perfectGas<Foam::specie>; Foam::scalar = double]
    in file ../specie/lnInclude/janaf2TThermoI.H at line 123
    attempt to use janaf2TThermo<EquationOfState> out of temperature range 100 -> 10000;  TTR = 0.498752
--> FOAM Warning : 
    From Foam::scalar Foam::janaf2TThermo<EquationOfState>::limit(Foam::scalar) const [with EquationOfState = Foam::perfectGas<Foam::specie>; Foam::scalar = double]
    in file ../specie/lnInclude/janaf2TThermoI.H at line 123
    attempt to use janaf2TThermo<EquationOfState> out of temperature range 100 -> 10000;  TTR = 0.499875
--> FOAM Warning : 
    From Foam::scalar Foam::janaf2TThermo<EquationOfState>::limit(Foam::scalar) const [with EquationOfState = Foam::perfectGas<Foam::specie>; Foam::scalar = double]
    in file ../specie/lnInclude/janaf2TThermoI.H at line 123
    attempt to use janaf2TThermo<EquationOfState> out of temperature range 100 -> 10000;  TTR = 0.498752
--> FOAM Warning : 
    From Foam::scalar Foam::janaf2TThermo<EquationOfState>::limit(Foam::scalar) const [with EquationOfState = Foam::perfectGas<Foam::specie>; Foam::scalar = double]
    in file ../specie/lnInclude/janaf2TThermoI.H at line 123
    attempt to use janaf2TThermo<EquationOfState> out of temperature range 100 -> 10000;  TTR = 0.499875
--> FOAM Warning : 
    From Foam::scalar Foam::janaf2TThermo<EquationOfState>::limit(Foam::scalar) const [with EquationOfState = Foam::perfectGas<Foam::specie>; Foam::scalar = double]
    in file ../specie/lnInclude/janaf2TThermoI.H at line 123
    attempt to use janaf2TThermo<EquationOfState> out of temperature range 100 -> 10000;  TTR = 0.498752
--> FOAM Warning : 
    From Foam::scalar Foam::janaf2TThermo<EquationOfState>::limit(Foam::scalar) const [with EquationOfState = Foam::perfectGas<Foam::specie>; Foam::scalar = double]
    in file ../specie/lnInclude/janaf2TThermoI.H at line 123
    attempt to use janaf2TThermo<EquationOfState> out of temperature range 100 -> 10000;  TTR = 0.499875
--> FOAM Warning : 
[...]
    From Foam::scalar Foam::janaf2TThermo<EquationOfState>::limit(Foam::scalar) const [with EquationOfState = Foam::perfectGas<Foam::specie>; Foam::scalar = double]
    in file ../specie/lnInclude/janaf2TThermoI.H at line 123
    attempt to use janaf2TThermo<EquationOfState> out of temperature range 100 -> 10000;  TTR = 0.498752
--> FOAM Warning : 
    From Foam::scalar Foam::janaf2TThermo<EquationOfState>::limit(Foam::scalar) const [with EquationOfState = Foam::perfectGas<Foam::specie>; Foam::scalar = double]
    in file ../specie/lnInclude/janaf2TThermoI.H at line 123
    attempt to use janaf2TThermo<EquationOfState> out of temperature range 100 -> 10000;  TTR = 0.499875
--> FOAM Warning : 
    From Foam::scalar Foam::janaf2TThermo<EquationOfState>::limit(Foam::scalar) const [with EquationOfState = Foam::perfectGas<Foam::specie>; Foam::scalar = double]
    in file ../specie/lnInclude/janaf2TThermoI.H at line 123
    attempt to use janaf2TThermo<EquationOfState> out of temperature range 100 -> 10000;  TTR = 0.498752
--> FOAM Warning : 
    From Foam::scalar Foam::janaf2TThermo<EquationOfState>::limit(Foam::scalar) const [with EquationOfState = Foam::perfectGas<Foam::specie>; Foam::scalar = double]
    in file ../specie/lnInclude/janaf2TThermoI.H at line 123
    attempt to use janaf2TThermo<EquationOfState> out of temperature range 100 -> 10000;  TTR = 0.499875
--> FOAM Warning : 
    From Foam::scalar Foam::janaf2TThermo<EquationOfState>::limit(Foam::scalar) const [with EquationOfState = Foam::perfectGas<Foam::specie>; Foam::scalar = double]
    in file ../specie/lnInclude/janaf2TThermoI.H at line 123
    attempt to use janaf2TThermo<EquationOfState> out of temperature range 100 -> 10000;  TTR = 0.498752
--> FOAM Warning : 
    From Foam::scalar Foam::janaf2TThermo<EquationOfState>::limit(Foam::scalar) const [with EquationOfState = Foam::perfectGas<Foam::specie>; Foam::scalar = double]
    in file ../specie/lnInclude/janaf2TThermoI.H at line 123
    attempt to use janaf2TThermo<EquationOfState> out of temperature range 100 -> 10000;  TTR = 0.499875
--> FOAM Warning : 
    From Foam::scalar Foam::janaf2TThermo<EquationOfState>::limit(Foam::scalar) const [with EquationOfState = Foam::perfectGas<Foam::specie>; Foam::scalar = double]
    in file ../specie/lnInclude/janaf2TThermoI.H at line 123
    attempt to use janaf2TThermo<EquationOfState> out of temperature range 100 -> 10000;  TTR = 0.498752
--> FOAM Warning : 
    From Foam::scalar Foam::janaf2TThermo<EquationOfState>::limit(Foam::scalar) const [with EquationOfState = Foam::perfectGas<Foam::specie>; Foam::scalar = double]
    in file ../specie/lnInclude/janaf2TThermoI.H at line 123
    attempt to use janaf2TThermo<EquationOfState> out of temperature range 100 -> 10000;  TTR = 0.499875
--> FOAM Warning : 
    From Foam::scalar Foam::janaf2TThermo<EquationOfState>::limit(Foam::scalar) const [with EquationOfState = Foam::perfectGas<Foam::specie>; Foam::scalar = double]
    in file ../specie/lnInclude/janaf2TThermoI.H at line 123
    attempt to use janaf2TThermo<EquationOfState> out of temperature range 100 -> 10000;  TTR = 0.498752
--> FOAM Warning : 
    From Foam::scalar Foam::janaf2TThermo<EquationOfState>::limit(Foam::scalar) const [with EquationOfState = Foam::perfectGas<Foam::specie>; Foam::scalar = double]
    in file ../specie/lnInclude/janaf2TThermoI.H at line 123
    attempt to use janaf2TThermo<EquationOfState> out of temperature range 100 -> 10000;  TTR = 0.499875
--> FOAM Warning : 
    From Foam::scalar Foam::janaf2TThermo<EquationOfState>::limit(Foam::scalar) const [with EquationOfState = Foam::perfectGas<Foam::specie>; Foam::scalar = double]
    in file ../specie/lnInclude/janaf2TThermoI.H at line 123
    attempt to use janaf2TThermo<EquationOfState> out of temperature range 100 -> 10000;  TTR = 0.498752
--> FOAM Warning : 
    From Foam::scalar Foam::janaf2TThermo<EquationOfState>::limit(Foam::scalar) const [with EquationOfState = Foam::perfectGas<Foam::specie>; Foam::scalar = double]
    in file ../specie/lnInclude/janaf2TThermoI.H at line 123
    attempt to use janaf2TThermo<EquationOfState> out of temperature range 100 -> 10000;  TTR = 0.499875
--> FOAM Warning : 
    From Foam::scalar Foam::janaf2TThermo<EquationOfState>::limit(Foam::scalar) const [with EquationOfState = Foam::perfectGas<Foam::specie>; Foam::scalar = double]
    in file ../specie/lnInclude/janaf2TThermoI.H at line 123
    attempt to use janaf2TThermo<EquationOfState> out of temperature range 100 -> 10000;  TTR = 0.498752
--> FOAM Warning : 
    From Foam::scalar Foam::janaf2TThermo<EquationOfState>::limit(Foam::scalar) const [with EquationOfState = Foam::perfectGas<Foam::specie>; Foam::scalar = double]
    in file ../specie/lnInclude/janaf2TThermoI.H at line 123
    attempt to use janaf2TThermo<EquationOfState> out of temperature range 100 -> 10000;  TTR = 0.499875
--> FOAM Warning : 
    From Foam::scalar Foam::janaf2TThermo<EquationOfState>::limit(Foam::scalar) const [with EquationOfState = Foam::perfectGas<Foam::specie>; Foam::scalar = double]
    in file ../specie/lnInclude/janaf2TThermoI.H at line 123
    attempt to use janaf2TThermo<EquationOfState> out of temperature range 100 -> 10000;  TTR = 0.498752
--> FOAM Warning : 
    From Foam::scalar Foam::janaf2TThermo<EquationOfState>::limit(Foam::scalar) const [with EquationOfState = Foam::perfectGas<Foam::specie>; Foam::scalar = double]
    in file ../specie/lnInclude/janaf2TThermoI.H at line 123
    attempt to use janaf2TThermo<EquationOfState> out of temperature range 100 -> 10000;  TTR = 0.499875
--> FOAM Warning : 
    From Foam::scalar Foam::janaf2TThermo<EquationOfState>::limit(Foam::scalar) const [with EquationOfState = Foam::perfectGas<Foam::specie>; Foam::scalar = double]
    in file ../specie/lnInclude/janaf2TThermoI.H at line 123
    attempt to use janaf2TThermo<EquationOfState> out of temperature range 100 -> 10000;  TTR = 0.498752
--> FOAM Warning : 
    From Foam::scalar Foam::janaf2TThermo<EquationOfState>::limit(Foam::scalar) const [with EquationOfState = Foam::perfectGas<Foam::specie>; Foam::scalar = double]
    in file ../specie/lnInclude/janaf2TThermoI.H at line 123
    attempt to use janaf2TThermo<EquationOfState> out of temperature range 100 -> 10000;  TTR = 0.499875
--> FOAM Warning : 
    From Foam::scalar Foam::janaf2TThermo<EquationOfState>::limit(Foam::scalar) const [with EquationOfState = Foam::perfectGas<Foam::specie>; Foam::scalar = double]
    in file ../specie/lnInclude/janaf2TThermoI.H at line 123
    attempt to use janaf2TThermo<EquationOfState> out of temperature range 100 -> 10000;  TTR = 0.498752
--> FOAM Warning : 
    From Foam::scalar Foam::janaf2TThermo<EquationOfState>::limit(Foam::scalar) const [with EquationOfState = Foam::perfectGas<Foam::specie>; Foam::scalar = double]
    in file ../specie/lnInclude/janaf2TThermoI.H at line 123
    attempt to use janaf2TThermo<EquationOfState> out of temperature range 100 -> 10000;  TTR = 0.499875
--> FOAM Warning : 
    From Foam::scalar Foam::janaf2TThermo<EquationOfState>::limit(Foam::scalar) const [with EquationOfState = Foam::perfectGas<Foam::specie>; Foam::scalar = double]
    in file ../specie/lnInclude/janaf2TThermoI.H at line 123
    attempt to use janaf2TThermo<EquationOfState> out of temperature range 100 -> 10000;  TTR = 0.498752
--> FOAM Warning : 
    From Foam::scalar Foam::janaf2TThermo<EquationOfState>::limit(Foam::scalar) const [with EquationOfState = Foam::perfectGas<Foam::specie>; Foam::scalar = double]
    in file ../specie/lnInclude/janaf2TThermoI.H at line 123
    attempt to use janaf2TThermo<EquationOfState> out of temperature range 100 -> 10000;  TTR = 0.499875
--> FOAM Warning : 
    From Foam::scalar Foam::janaf2TThermo<EquationOfState>::limit(Foam::scalar) const [with EquationOfState = Foam::perfectGas<Foam::specie>; Foam::scalar = double]
    in file ../specie/lnInclude/janaf2TThermoI.H at line 123
    attempt to use janaf2TThermo<EquationOfState> out of temperature range 100 -> 10000;  TTR = 0.498752
--> FOAM Warning : 
    From Foam::scalar Foam::janaf2TThermo<EquationOfState>::limit(Foam::scalar) const [with EquationOfState = Foam::perfectGas<Foam::specie>; Foam::scalar = double]
    in file ../specie/lnInclude/janaf2TThermoI.H at line 123
    attempt to use janaf2TThermo<EquationOfState> out of temperature range 100 -> 10000;  TTR = 0.499875
--> FOAM Warning : 
    From Foam::scalar Foam::janaf2TThermo<EquationOfState>::limit(Foam::scalar) const [with EquationOfState = Foam::perfectGas<Foam::specie>; Foam::scalar = double]
    in file ../specie/lnInclude/janaf2TThermoI.H at line 123
    attempt to use janaf2TThermo<EquationOfState> out of temperature range 100 -> 10000;  TTR = 0.498752
--> FOAM Warning : 
    From Foam::scalar Foam::janaf2TThermo<EquationOfState>::limit(Foam::scalar) const [with EquationOfState = Foam::perfectGas<Foam::specie>; Foam::scalar = double]
    in file ../specie/lnInclude/janaf2TThermoI.H at line 123
    attempt to use janaf2TThermo<EquationOfState> out of temperature range 100 -> 10000;  TTR = 0.499875
--> FOAM Warning : 
    From Foam::scalar Foam::janaf2TThermo<EquationOfState>::limit(Foam::scalar) const [with EquationOfState = Foam::perfectGas<Foam::specie>; Foam::scalar = double]
    in file ../specie/lnInclude/janaf2TThermoI.H at line 123
    attempt to use janaf2TThermo<EquationOfState> out of temperature range 100 -> 10000;  TTR = 0.498752
--> FOAM Warning : 
    From Foam::scalar Foam::janaf2TThermo<EquationOfState>::limit(Foam::scalar) const [with EquationOfState = Foam::perfectGas<Foam::specie>; Foam::scalar = double]
    in file ../specie/lnInclude/janaf2TThermoI.H at line 123
    attempt to use janaf2TThermo<EquationOfState> out of temperature range 100 -> 10000;  TTR = 0.499875
--> FOAM Warning : 
    From Foam::scalar Foam::janaf2TThermo<EquationOfState>::limit(Foam::scalar) const [with EquationOfState = Foam::perfectGas<Foam::specie>; Foam::scalar = double]
    in file ../specie/lnInclude/janaf2TThermoI.H at line 123
    attempt to use janaf2TThermo<EquationOfState> out of temperature range 100 -> 10000;  TTR = 0.498752
--> FOAM Warning : 
    From Foam::scalar Foam::janaf2TThermo<EquationOfState>::limit(Foam::scalar) const [with EquationOfState = Foam::perfectGas<Foam::specie>; Foam::scalar = double]
    in file ../specie/lnInclude/janaf2TThermoI.H at line 123
    attempt to use janaf2TThermo<EquationOfState> out of temperature range 100 -> 10000;  TTR = 0.499875
--> FOAM Warning : 
    From Foam::scalar Foam::janaf2TThermo<EquationOfState>::limit(Foam::scalar) const [with EquationOfState = Foam::perfectGas<Foam::specie>; Foam::scalar = double]
    in file ../specie/lnInclude/janaf2TThermoI.H at line 123
    attempt to use janaf2TThermo<EquationOfState> out of temperature range 100 -> 10000;  TTR = 0.498752
--> FOAM Warning : 
    From Foam::scalar Foam::janaf2TThermo<EquationOfState>::limit(Foam::scalar) const [with EquationOfState = Foam::perfectGas<Foam::specie>; Foam::scalar = double]
    in file ../specie/lnInclude/janaf2TThermoI.H at line 123
    attempt to use janaf2TThermo<EquationOfState> out of temperature range 100 -> 10000;  TTR = 0.499875
--> FOAM Warning : 
    From Foam::scalar Foam::janaf2TThermo<EquationOfState>::limit(Foam::scalar) const [with EquationOfState = Foam::perfectGas<Foam::specie>; Foam::scalar = double]
    in file ../specie/lnInclude/janaf2TThermoI.H at line 123
    attempt to use janaf2TThermo<EquationOfState> out of temperature range 100 -> 10000;  TTR = 0.498752
--> FOAM Warning : 
    From Foam::scalar Foam::janaf2TThermo<EquationOfState>::limit(Foam::scalar) const [with EquationOfState = Foam::perfectGas<Foam::specie>; Foam::scalar = double]
    in file ../specie/lnInclude/janaf2TThermoI.H at line 123
    attempt to use janaf2TThermo<EquationOfState> out of temperature range 100 -> 10000;  TTR = 0.499875
--> FOAM Warning : 
    From Foam::scalar Foam::janaf2TThermo<EquationOfState>::limit(Foam::scalar) const [with EquationOfState = Foam::perfectGas<Foam::specie>; Foam::scalar = double]
    in file ../specie/lnInclude/janaf2TThermoI.H at line 123
    attempt to use janaf2TThermo<EquationOfState> out of temperature range 100 -> 10000;  TTR = 0.498752
--> FOAM Warning : 
    From Foam::scalar Foam::janaf2TThermo<EquationOfState>::limit(Foam::scalar) const [with EquationOfState = Foam::perfectGas<Foam::specie>; Foam::scalar = double]
    in file ../specie/lnInclude/janaf2TThermoI.H at line 123
    attempt to use janaf2TThermo<EquationOfState> out of temperature range 100 -> 10000;  TTR = 0.499875
--> FOAM Warning : 
    From Foam::scalar Foam::janaf2TThermo<EquationOfState>::limit(Foam::scalar) const [with EquationOfState = Foam::perfectGas<Foam::specie>; Foam::scalar = double]
    in file ../specie/lnInclude/janaf2TThermoI.H at line 123
    attempt to use janaf2TThermo<EquationOfState> out of temperature range 100 -> 10000;  TTR = 0.498752
--> FOAM Warning : 
    From Foam::scalar Foam::janaf2TThermo<EquationOfState>::limit(Foam::scalar) const [with EquationOfState = Foam::perfectGas<Foam::specie>; Foam::scalar = double]
    in file ../specie/lnInclude/janaf2TThermoI.H at line 123
    attempt to use janaf2TThermo<EquationOfState> out of temperature range 100 -> 10000;  TTR = 0.499875
--> FOAM Warning : 
    From Foam::scalar Foam::janaf2TThermo<EquationOfState>::limit(Foam::scalar) const [with EquationOfState = Foam::perfectGas<Foam::specie>; Foam::scalar = double]
    in file ../specie/lnInclude/janaf2TThermoI.H at line 123
    attempt to use janaf2TThermo<EquationOfState> out of temperature range 100 -> 10000;  TTR = 0.498752
--> FOAM Warning : 
    From Foam::scalar Foam::janaf2TThermo<EquationOfState>::limit(Foam::scalar) const [with EquationOfState = Foam::perfectGas<Foam::specie>; Foam::scalar = double]
    in file ../specie/lnInclude/janaf2TThermoI.H at line 123
    attempt to use janaf2TThermo<EquationOfState> out of temperature range 100 -> 10000;  TTR = 0.499875
--> FOAM Warning : 
    From Foam::scalar Foam::janaf2TThermo<EquationOfState>::limit(Foam::scalar) const [with EquationOfState = Foam::perfectGas<Foam::specie>; Foam::scalar = double]
    in file ../specie/lnInclude/janaf2TThermoI.H at line 123
    attempt to use janaf2TThermo<EquationOfState> out of temperature range 100 -> 10000;  TTR = 0.498752
--> FOAM Warning : 
    From Foam::scalar Foam::janaf2TThermo<EquationOfState>::limit(Foam::scalar) const [with EquationOfState = Foam::perfectGas<Foam::specie>; Foam::scalar = double]
    in file ../specie/lnInclude/janaf2TThermoI.H at line 123
    attempt to use janaf2TThermo<EquationOfState> out of temperature range 100 -> 10000;  TTR = 0.499875
--> FOAM Warning : 
    From Foam::scalar Foam::janaf2TThermo<EquationOfState>::limit(Foam::scalar) const [with EquationOfState = Foam::perfectGas<Foam::specie>; Foam::scalar = double]
    in file ../specie/lnInclude/janaf2TThermoI.H at line 123
    attempt to use janaf2TThermo<EquationOfState> out of temperature range 100 -> 10000;  TTR = 0.498752
--> FOAM Warning : 
    From Foam::scalar Foam::janaf2TThermo<EquationOfState>::limit(Foam::scalar) const [with EquationOfState = Foam::perfectGas<Foam::specie>; Foam::scalar = double]
    in file ../specie/lnInclude/janaf2TThermoI.H at line 123
    attempt to use janaf2TThermo<EquationOfState> out of temperature range 100 -> 10000;  TTR = 0.499875
--> FOAM Warning : 
    From Foam::scalar Foam::janaf2TThermo<EquationOfState>::limit(Foam::scalar) const [with EquationOfState = Foam::perfectGas<Foam::specie>; Foam::scalar = double]
    in file ../specie/lnInclude/janaf2TThermoI.H at line 123
    attempt to use janaf2TThermo<EquationOfState> out of temperature range 100 -> 10000;  TTR = 0.498752
--> FOAM Warning : 
    From Foam::scalar Foam::janaf2TThermo<EquationOfState>::limit(Foam::scalar) const [with EquationOfState = Foam::perfectGas<Foam::specie>; Foam::scalar = double]
    in file ../specie/lnInclude/janaf2TThermoI.H at line 123
    attempt to use janaf2TThermo<EquationOfState> out of temperature range 100 -> 10000;  TTR = 0.499875
--> FOAM Warning : 
    From Foam::scalar Foam::janaf2TThermo<EquationOfState>::limit(Foam::scalar) const [with EquationOfState = Foam::perfectGas<Foam::specie>; Foam::scalar = double]
    in file ../specie/lnInclude/janaf2TThermoI.H at line 123
    attempt to use janaf2TThermo<EquationOfState> out of temperature range 100 -> 10000;  TTR = 0.498752
--> FOAM Warning : 
    From Foam::scalar Foam::janaf2TThermo<EquationOfState>::limit(Foam::scalar) const [with EquationOfState = Foam::perfectGas<Foam::specie>; Foam::scalar = double]
    in file ../specie/lnInclude/janaf2TThermoI.H at line 123
    attempt to use janaf2TThermo<EquationOfState> out of temperature range 100 -> 10000;  TTR = 0.499875
--> FOAM Warning : 
    From Foam::scalar Foam::janaf2TThermo<EquationOfState>::limit(Foam::scalar) const [with EquationOfState = Foam::perfectGas<Foam::specie>; Foam::scalar = double]
    in file ../specie/lnInclude/janaf2TThermoI.H at line 123
    attempt to use janaf2TThermo<EquationOfState> out of temperature range 100 -> 10000;  TTR = 0.498752
--> FOAM Warning : 
    From Foam::scalar Foam::janaf2TThermo<EquationOfState>::limit(Foam::scalar) const [with EquationOfState = Foam::perfectGas<Foam::specie>; Foam::scalar = double]
    in file ../specie/lnInclude/janaf2TThermoI.H at line 123
    attempt to use janaf2TThermo<EquationOfState> out of temperature range 100 -> 10000;  TTR = 0.499875
--> FOAM Warning : 
    From Foam::scalar Foam::janaf2TThermo<EquationOfState>::limit(Foam::scalar) const [with EquationOfState = Foam::perfectGas<Foam::specie>; Foam::scalar = double]
    in file ../specie/lnInclude/janaf2TThermoI.H at line 123
    attempt to use janaf2TThermo<EquationOfState> out of temperature range 100 -> 10000;  TTR = 0.498752
--> FOAM Warning : 
    From Foam::scalar Foam::janaf2TThermo<EquationOfState>::limit(Foam::scalar) const [with EquationOfState = Foam::perfectGas<Foam::specie>; Foam::scalar = double]
    in file ../specie/lnInclude/janaf2TThermoI.H at line 123
    attempt to use janaf2TThermo<EquationOfState> out of temperature range 100 -> 10000;  TTR = 0.499875
--> FOAM Warning : 
    From Foam::scalar Foam::janaf2TThermo<EquationOfState>::limit(Foam::scalar) const [with EquationOfState = Foam::perfectGas<Foam::specie>; Foam::scalar = double]
    in file ../specie/lnInclude/janaf2TThermoI.H at line 123
    attempt to use janaf2TThermo<EquationOfState> out of temperature range 100 -> 10000;  TTR = 0.498752
--> FOAM Warning : 
    From Foam::scalar Foam::janaf2TThermo<EquationOfState>::limit(Foam::scalar) const [with EquationOfState = Foam::perfectGas<Foam::specie>; Foam::scalar = double]
    in file ../specie/lnInclude/janaf2TThermoI.H at line 123
    attempt to use janaf2TThermo<EquationOfState> out of temperature range 100 -> 10000;  TTR = 0.499875
--> FOAM Warning : 
    From Foam::scalar Foam::janaf2TThermo<EquationOfState>::limit(Foam::scalar) const [with EquationOfState = Foam::perfectGas<Foam::specie>; Foam::scalar = double]
    in file ../specie/lnInclude/janaf2TThermoI.H at line 123
    attempt to use janaf2TThermo<EquationOfState> out of temperature range 100 -> 10000;  TTR = 0.498752
--> FOAM Warning : 
    From Foam::scalar Foam::janaf2TThermo<EquationOfState>::limit(Foam::scalar) const [with EquationOfState = Foam::perfectGas<Foam::specie>; Foam::scalar = double]
    in file ../specie/lnInclude/janaf2TThermoI.H at line 123
    attempt to use janaf2TThermo<EquationOfState> out of temperature range 100 -> 10000;  TTR = 0.499875
--> FOAM Warning : 
    From Foam::scalar Foam::janaf2TThermo<EquationOfState>::limit(Foam::scalar) const [with EquationOfState = Foam::perfectGas<Foam::specie>; Foam::scalar = double]
    in file ../specie/lnInclude/janaf2TThermoI.H at line 123
    attempt to use janaf2TThermo<EquationOfState> out of temperature range 100 -> 10000;  TTR = 0.498752
