/*---------------------------------------------------------------------------*\
| =========                 |                                                 |
| \\      /  F ield         | OpenFOAM: The Open Source CFD Toolbox           |
|  \\    /   O peration     | Version:  2412                                  |
|   \\  /    A nd           | Website:  www.openfoam.com                      |
|    \\/     M anipulation  |                                                 |
\*---------------------------------------------------------------------------*/
Build  : 0bb0c1db74-20250528 OPENFOAM=2412 version=v2412
Arch   : "LSB;label=32;scalar=64"
Exec   : nexaFoam
Date   : Feb 06 2026
Time   : 15:12:53
Host   : FurkanLinux
PID    : 815452
I/O    : uncollated
Case   : /home/t12022124597/Desktop/codeProjects/masterThesisCode/nexaFoam/tutorials/compressible/nexaFoam/sodShockTube_twoComp
nProcs : 1
trapFpe: Floating point exception trapping enabled (FOAM_SIGFPE).
fileModificationChecking : Monitoring run-time modified files using timeStampMaster (fileModificationSkew 5, maxFileModificationPolls 20)
allowSystemOperations : Allowing user-supplied system call operations

// * * * * * * * * * * * * * * * * * * * * * * * * * * * * * * * * * * * * * //
Create time

Create mesh for time = 0

Multiple species are found in mixture.

Selecting thermodynamics package 
{
    type            heNe2TReactionThermo;
    mixture         multiComponent2TMixture;
    transport       blottnerEucken2T;
    thermo          janaf2T;
    equationOfState perfect2TGas;
    specie          specie2T;
    energy          sensibleCalculation2T;
}

Reading field U

Creating turbulence model

Selecting turbulence model type laminar
Selecting laminar stress model Stokes
fluxScheme: Kurganov

Starting time loop

Sampled set:
    xLine -> csv

Mean and max Courant Numbers = 0.162077 0.176504
deltaT = 0.000111331
Time = 0.000111331

diagonal:  Solving for rhoCont, Initial residual = 0, Final residual = 0, No Iterations 0
diagonal:  Solving for rhoY_Y_N2, Initial residual = 0, Final residual = 0, No Iterations 0
diagonal:  Solving for rhoY_Y_O2, Initial residual = 0, Final residual = 0, No Iterations 0
diagonal:  Solving for rhoUx, Initial residual = 0, Final residual = 0, No Iterations 0
smoothSolver:  Solving for Ux, Initial residual = 2.02317e-07, Final residual = 7.18607e-18, No Iterations 2
diagonal:  Solving for rhoE, Initial residual = 0, Final residual = 0, No Iterations 0
smoothSolver:  Solving for h, Initial residual = 1.23756e-08, Final residual = 8.15043e-18, No Iterations 2
Sanity check: max(|rhoCont - rhoFromSpecies|) = 1.11022e-16

ExecutionTime = 0.09 s  ClockTime = 0 s

Mean and max Courant Numbers = 0.182581 0.272258
deltaT = 8.17835e-05
Time = 0.000193115

diagonal:  Solving for rhoCont, Initial residual = 0, Final residual = 0, No Iterations 0
diagonal:  Solving for rhoY_Y_N2, Initial residual = 0, Final residual = 0, No Iterations 0
diagonal:  Solving for rhoY_Y_O2, Initial residual = 0, Final residual = 0, No Iterations 0
diagonal:  Solving for rhoUx, Initial residual = 0, Final residual = 0, No Iterations 0
smoothSolver:  Solving for Ux, Initial residual = 1.09991e-07, Final residual = 3.87768e-17, No Iterations 2
diagonal:  Solving for rhoE, Initial residual = 0, Final residual = 0, No Iterations 0
smoothSolver:  Solving for h, Initial residual = 1.04314e-08, Final residual = 1.76007e-17, No Iterations 2
Sanity check: max(|rhoCont - rhoFromSpecies|) = 1.11022e-16

ExecutionTime = 0.15 s  ClockTime = 0 s

Mean and max Courant Numbers = 0.134986 0.236879
deltaT = 6.90508e-05
Time = 0.000262165

diagonal:  Solving for rhoCont, Initial residual = 0, Final residual = 0, No Iterations 0
diagonal:  Solving for rhoY_Y_N2, Initial residual = 0, Final residual = 0, No Iterations 0
diagonal:  Solving for rhoY_Y_O2, Initial residual = 0, Final residual = 0, No Iterations 0
diagonal:  Solving for rhoUx, Initial residual = 0, Final residual = 0, No Iterations 0
smoothSolver:  Solving for Ux, Initial residual = 6.99414e-08, Final residual = 2.49764e-17, No Iterations 2
diagonal:  Solving for rhoE, Initial residual = 0, Final residual = 0, No Iterations 0
smoothSolver:  Solving for h, Initial residual = 1.33205e-08, Final residual = 1.47838e-17, No Iterations 2
Sanity check: max(|rhoCont - rhoFromSpecies|) = 2.22045e-16

ExecutionTime = 0.21 s  ClockTime = 0 s

Mean and max Courant Numbers = 0.114365 0.205514
deltaT = 6.71982e-05
Time = 0.000329364

diagonal:  Solving for rhoCont, Initial residual = 0, Final residual = 0, No Iterations 0
diagonal:  Solving for rhoY_Y_N2, Initial residual = 0, Final residual = 0, No Iterations 0
diagonal:  Solving for rhoY_Y_O2, Initial residual = 0, Final residual = 0, No Iterations 0
diagonal:  Solving for rhoUx, Initial residual = 0, Final residual = 0, No Iterations 0
smoothSolver:  Solving for Ux, Initial residual = 6.97986e-08, Final residual = 2.27297e-17, No Iterations 2
diagonal:  Solving for rhoE, Initial residual = 0, Final residual = 0, No Iterations 0
smoothSolver:  Solving for h, Initial residual = 1.71291e-08, Final residual = 1.44721e-17, No Iterations 2
Sanity check: max(|rhoCont - rhoFromSpecies|) = 2.22045e-16

ExecutionTime = 0.26 s  ClockTime = 0 s

Mean and max Courant Numbers = 0.111744 0.19935
deltaT = 6.74174e-05
Time = 0.000396781

diagonal:  Solving for rhoCont, Initial residual = 0, Final residual = 0, No Iterations 0
diagonal:  Solving for rhoY_Y_N2, Initial residual = 0, Final residual = 0, No Iterations 0
diagonal:  Solving for rhoY_Y_O2, Initial residual = 0, Final residual = 0, No Iterations 0
diagonal:  Solving for rhoUx, Initial residual = 0, Final residual = 0, No Iterations 0
smoothSolver:  Solving for Ux, Initial residual = 6.34682e-08, Final residual = 1.466e-17, No Iterations 2
diagonal:  Solving for rhoE, Initial residual = 0, Final residual = 0, No Iterations 0
smoothSolver:  Solving for h, Initial residual = 2.0001e-08, Final residual = 1.43064e-17, No Iterations 2
Sanity check: max(|rhoCont - rhoFromSpecies|) = 3.33067e-16

ExecutionTime = 0.32 s  ClockTime = 0 s

Mean and max Courant Numbers = 0.112544 0.214766
deltaT = 6.27821e-05
Time = 0.000459563

diagonal:  Solving for rhoCont, Initial residual = 0, Final residual = 0, No Iterations 0
diagonal:  Solving for rhoY_Y_N2, Initial residual = 0, Final residual = 0, No Iterations 0
diagonal:  Solving for rhoY_Y_O2, Initial residual = 0, Final residual = 0, No Iterations 0
diagonal:  Solving for rhoUx, Initial residual = 0, Final residual = 0, No Iterations 0
smoothSolver:  Solving for Ux, Initial residual = 4.82442e-08, Final residual = 2.00919e-17, No Iterations 2
diagonal:  Solving for rhoE, Initial residual = 0, Final residual = 0, No Iterations 0
smoothSolver:  Solving for h, Initial residual = 1.95432e-08, Final residual = 1.3941e-17, No Iterations 2
Sanity check: max(|rhoCont - rhoFromSpecies|) = 2.22045e-16

ExecutionTime = 0.37 s  ClockTime = 0 s

Mean and max Courant Numbers = 0.10512 0.205703
deltaT = 6.10416e-05
Time = 0.000520605

diagonal:  Solving for rhoCont, Initial residual = 0, Final residual = 0, No Iterations 0
diagonal:  Solving for rhoY_Y_N2, Initial residual = 0, Final residual = 0, No Iterations 0
diagonal:  Solving for rhoY_Y_O2, Initial residual = 0, Final residual = 0, No Iterations 0
diagonal:  Solving for rhoUx, Initial residual = 0, Final residual = 0, No Iterations 0
smoothSolver:  Solving for Ux, Initial residual = 3.77821e-08, Final residual = 1.33157e-17, No Iterations 2
diagonal:  Solving for rhoE, Initial residual = 0, Final residual = 0, No Iterations 0
smoothSolver:  Solving for h, Initial residual = 2.16419e-08, Final residual = 1.51568e-17, No Iterations 2
Sanity check: max(|rhoCont - rhoFromSpecies|) = 2.22045e-16

ExecutionTime = 0.43 s  ClockTime = 0 s

Mean and max Courant Numbers = 0.102519 0.199829
deltaT = 6.10937e-05
Time = 0.000581698

diagonal:  Solving for rhoCont, Initial residual = 0, Final residual = 0, No Iterations 0
diagonal:  Solving for rhoY_Y_N2, Initial residual = 0, Final residual = 0, No Iterations 0
diagonal:  Solving for rhoY_Y_O2, Initial residual = 0, Final residual = 0, No Iterations 0
diagonal:  Solving for rhoUx, Initial residual = 0, Final residual = 0, No Iterations 0
smoothSolver:  Solving for Ux, Initial residual = 3.84269e-08, Final residual = 1.28961e-17, No Iterations 2
diagonal:  Solving for rhoE, Initial residual = 0, Final residual = 0, No Iterations 0
smoothSolver:  Solving for h, Initial residual = 2.38257e-08, Final residual = 1.27585e-17, No Iterations 2
Sanity check: max(|rhoCont - rhoFromSpecies|) = 4.44089e-16

ExecutionTime = 0.48 s  ClockTime = 0 s

Mean and max Courant Numbers = 0.102942 0.197048
deltaT = 6.20089e-05
Time = 0.000643707

diagonal:  Solving for rhoCont, Initial residual = 0, Final residual = 0, No Iterations 0
diagonal:  Solving for rhoY_Y_N2, Initial residual = 0, Final residual = 0, No Iterations 0
diagonal:  Solving for rhoY_Y_O2, Initial residual = 0, Final residual = 0, No Iterations 0
diagonal:  Solving for rhoUx, Initial residual = 0, Final residual = 0, No Iterations 0
smoothSolver:  Solving for Ux, Initial residual = 3.56962e-08, Final residual = 1.27883e-17, No Iterations 2
diagonal:  Solving for rhoE, Initial residual = 0, Final residual = 0, No Iterations 0
smoothSolver:  Solving for h, Initial residual = 2.49772e-08, Final residual = 1.39182e-17, No Iterations 2
Sanity check: max(|rhoCont - rhoFromSpecies|) = 5.55112e-16

ExecutionTime = 0.54 s  ClockTime = 0 s

Mean and max Courant Numbers = 0.104799 0.196358
deltaT = 6.3159e-05
Time = 0.000706866

diagonal:  Solving for rhoCont, Initial residual = 0, Final residual = 0, No Iterations 0
diagonal:  Solving for rhoY_Y_N2, Initial residual = 0, Final residual = 0, No Iterations 0
diagonal:  Solving for rhoY_Y_O2, Initial residual = 0, Final residual = 0, No Iterations 0
diagonal:  Solving for rhoUx, Initial residual = 0, Final residual = 0, No Iterations 0
smoothSolver:  Solving for Ux, Initial residual = 3.0057e-08, Final residual = 7.96417e-18, No Iterations 2
diagonal:  Solving for rhoE, Initial residual = 0, Final residual = 0, No Iterations 0
smoothSolver:  Solving for h, Initial residual = 2.48627e-08, Final residual = 1.48412e-17, No Iterations 2
Sanity check: max(|rhoCont - rhoFromSpecies|) = 6.66134e-16

ExecutionTime = 0.6 s  ClockTime = 0 s

Mean and max Courant Numbers = 0.107069 0.201258
deltaT = 6.27641e-05
Time = 0.00076963

diagonal:  Solving for rhoCont, Initial residual = 0, Final residual = 0, No Iterations 0
diagonal:  Solving for rhoY_Y_N2, Initial residual = 0, Final residual = 0, No Iterations 0
diagonal:  Solving for rhoY_Y_O2, Initial residual = 0, Final residual = 0, No Iterations 0
diagonal:  Solving for rhoUx, Initial residual = 0, Final residual = 0, No Iterations 0
smoothSolver:  Solving for Ux, Initial residual = 2.70193e-08, Final residual = 1.1092e-17, No Iterations 2
diagonal:  Solving for rhoE, Initial residual = 0, Final residual = 0, No Iterations 0
smoothSolver:  Solving for h, Initial residual = 2.53059e-08, Final residual = 1.47301e-17, No Iterations 2
Sanity check: max(|rhoCont - rhoFromSpecies|) = 7.77156e-16

ExecutionTime = 0.65 s  ClockTime = 0 s

Mean and max Courant Numbers = 0.106778 0.200681
deltaT = 6.25512e-05
Time = 0.000832182

diagonal:  Solving for rhoCont, Initial residual = 0, Final residual = 0, No Iterations 0
diagonal:  Solving for rhoY_Y_N2, Initial residual = 0, Final residual = 0, No Iterations 0
diagonal:  Solving for rhoY_Y_O2, Initial residual = 0, Final residual = 0, No Iterations 0
diagonal:  Solving for rhoUx, Initial residual = 0, Final residual = 0, No Iterations 0
smoothSolver:  Solving for Ux, Initial residual = 2.70869e-08, Final residual = 1.48989e-17, No Iterations 2
diagonal:  Solving for rhoE, Initial residual = 0, Final residual = 0, No Iterations 0
smoothSolver:  Solving for h, Initial residual = 2.73601e-08, Final residual = 1.32048e-17, No Iterations 2
Sanity check: max(|rhoCont - rhoFromSpecies|) = 5.55112e-16

ExecutionTime = 0.71 s  ClockTime = 0 s

Mean and max Courant Numbers = 0.106803 0.198678
deltaT = 6.29675e-05
Time = 0.000895149

diagonal:  Solving for rhoCont, Initial residual = 0, Final residual = 0, No Iterations 0
diagonal:  Solving for rhoY_Y_N2, Initial residual = 0, Final residual = 0, No Iterations 0
diagonal:  Solving for rhoY_Y_O2, Initial residual = 0, Final residual = 0, No Iterations 0
diagonal:  Solving for rhoUx, Initial residual = 0, Final residual = 0, No Iterations 0
smoothSolver:  Solving for Ux, Initial residual = 2.42544e-08, Final residual = 1.76679e-17, No Iterations 2
diagonal:  Solving for rhoE, Initial residual = 0, Final residual = 0, No Iterations 0
smoothSolver:  Solving for h, Initial residual = 2.81646e-08, Final residual = 1.60773e-17, No Iterations 2
Sanity check: max(|rhoCont - rhoFromSpecies|) = 6.66134e-16

ExecutionTime = 0.77 s  ClockTime = 0 s

Mean and max Courant Numbers = 0.107865 0.198258
deltaT = 6.35208e-05
Time = 0.00095867

diagonal:  Solving for rhoCont, Initial residual = 0, Final residual = 0, No Iterations 0
diagonal:  Solving for rhoY_Y_N2, Initial residual = 0, Final residual = 0, No Iterations 0
diagonal:  Solving for rhoY_Y_O2, Initial residual = 0, Final residual = 0, No Iterations 0
diagonal:  Solving for rhoUx, Initial residual = 0, Final residual = 0, No Iterations 0
smoothSolver:  Solving for Ux, Initial residual = 1.95888e-08, Final residual = 7.9429e-18, No Iterations 2
diagonal:  Solving for rhoE, Initial residual = 0, Final residual = 0, No Iterations 0
smoothSolver:  Solving for h, Initial residual = 2.77663e-08, Final residual = 1.44672e-17, No Iterations 2
Sanity check: max(|rhoCont - rhoFromSpecies|) = 5.55112e-16

ExecutionTime = 0.82 s  ClockTime = 0 s

Mean and max Courant Numbers = 0.109186 0.20365
deltaT = 6.23822e-05
Time = 0.00102105

diagonal:  Solving for rhoCont, Initial residual = 0, Final residual = 0, No Iterations 0
diagonal:  Solving for rhoY_Y_N2, Initial residual = 0, Final residual = 0, No Iterations 0
diagonal:  Solving for rhoY_Y_O2, Initial residual = 0, Final residual = 0, No Iterations 0
diagonal:  Solving for rhoUx, Initial residual = 0, Final residual = 0, No Iterations 0
smoothSolver:  Solving for Ux, Initial residual = 2.099e-08, Final residual = 2.17673e-17, No Iterations 2
diagonal:  Solving for rhoE, Initial residual = 0, Final residual = 0, No Iterations 0
smoothSolver:  Solving for h, Initial residual = 2.79406e-08, Final residual = 1.62099e-17, No Iterations 2
Sanity check: max(|rhoCont - rhoFromSpecies|) = 7.77156e-16

ExecutionTime = 0.88 s  ClockTime = 1 s

Mean and max Courant Numbers = 0.107622 0.200214
deltaT = 6.23156e-05
Time = 0.00108337

diagonal:  Solving for rhoCont, Initial residual = 0, Final residual = 0, No Iterations 0
diagonal:  Solving for rhoY_Y_N2, Initial residual = 0, Final residual = 0, No Iterations 0
diagonal:  Solving for rhoY_Y_O2, Initial residual = 0, Final residual = 0, No Iterations 0
diagonal:  Solving for rhoUx, Initial residual = 0, Final residual = 0, No Iterations 0
smoothSolver:  Solving for Ux, Initial residual = 2.06481e-08, Final residual = 2.52892e-17, No Iterations 2
diagonal:  Solving for rhoE, Initial residual = 0, Final residual = 0, No Iterations 0
smoothSolver:  Solving for h, Initial residual = 2.80987e-08, Final residual = 1.85889e-17, No Iterations 2
Sanity check: max(|rhoCont - rhoFromSpecies|) = 8.88178e-16

ExecutionTime = 0.94 s  ClockTime = 1 s

Mean and max Courant Numbers = 0.107867 0.199251
deltaT = 6.25498e-05
Time = 0.00114592

diagonal:  Solving for rhoCont, Initial residual = 0, Final residual = 0, No Iterations 0
diagonal:  Solving for rhoY_Y_N2, Initial residual = 0, Final residual = 0, No Iterations 0
diagonal:  Solving for rhoY_Y_O2, Initial residual = 0, Final residual = 0, No Iterations 0
diagonal:  Solving for rhoUx, Initial residual = 0, Final residual = 0, No Iterations 0
smoothSolver:  Solving for Ux, Initial residual = 1.79097e-08, Final residual = 1.04357e-17, No Iterations 2
diagonal:  Solving for rhoE, Initial residual = 0, Final residual = 0, No Iterations 0
smoothSolver:  Solving for h, Initial residual = 2.74335e-08, Final residual = 1.482e-17, No Iterations 2
Sanity check: max(|rhoCont - rhoFromSpecies|) = 7.77156e-16

ExecutionTime = 1 s  ClockTime = 1 s

Mean and max Courant Numbers = 0.108618 0.20207
deltaT = 6.1909e-05
Time = 0.00120783

diagonal:  Solving for rhoCont, Initial residual = 0, Final residual = 0, No Iterations 0
diagonal:  Solving for rhoY_Y_N2, Initial residual = 0, Final residual = 0, No Iterations 0
diagonal:  Solving for rhoY_Y_O2, Initial residual = 0, Final residual = 0, No Iterations 0
diagonal:  Solving for rhoUx, Initial residual = 0, Final residual = 0, No Iterations 0
smoothSolver:  Solving for Ux, Initial residual = 1.74524e-08, Final residual = 1.30996e-17, No Iterations 2
diagonal:  Solving for rhoE, Initial residual = 0, Final residual = 0, No Iterations 0
smoothSolver:  Solving for h, Initial residual = 2.65284e-08, Final residual = 1.5311e-17, No Iterations 2
Sanity check: max(|rhoCont - rhoFromSpecies|) = 7.77156e-16

ExecutionTime = 1.06 s  ClockTime = 1 s

Mean and max Courant Numbers = 0.10788 0.200957
deltaT = 6.16141e-05
Time = 0.00126944

diagonal:  Solving for rhoCont, Initial residual = 0, Final residual = 0, No Iterations 0
diagonal:  Solving for rhoY_Y_N2, Initial residual = 0, Final residual = 0, No Iterations 0
diagonal:  Solving for rhoY_Y_O2, Initial residual = 0, Final residual = 0, No Iterations 0
diagonal:  Solving for rhoUx, Initial residual = 0, Final residual = 0, No Iterations 0
smoothSolver:  Solving for Ux, Initial residual = 1.83126e-08, Final residual = 1.36206e-17, No Iterations 2
diagonal:  Solving for rhoE, Initial residual = 0, Final residual = 0, No Iterations 0
smoothSolver:  Solving for h, Initial residual = 2.75234e-08, Final residual = 1.36562e-17, No Iterations 2
Sanity check: max(|rhoCont - rhoFromSpecies|) = 8.88178e-16

ExecutionTime = 1.12 s  ClockTime = 1 s

Mean and max Courant Numbers = 0.107727 0.199299
deltaT = 6.18308e-05
Time = 0.00133127

diagonal:  Solving for rhoCont, Initial residual = 0, Final residual = 0, No Iterations 0
diagonal:  Solving for rhoY_Y_N2, Initial residual = 0, Final residual = 0, No Iterations 0
diagonal:  Solving for rhoY_Y_O2, Initial residual = 0, Final residual = 0, No Iterations 0
diagonal:  Solving for rhoUx, Initial residual = 0, Final residual = 0, No Iterations 0
smoothSolver:  Solving for Ux, Initial residual = 1.66574e-08, Final residual = 1.85626e-17, No Iterations 2
diagonal:  Solving for rhoE, Initial residual = 0, Final residual = 0, No Iterations 0
smoothSolver:  Solving for h, Initial residual = 2.74316e-08, Final residual = 1.34104e-17, No Iterations 2
Sanity check: max(|rhoCont - rhoFromSpecies|) = 7.77156e-16

ExecutionTime = 1.17 s  ClockTime = 1 s

Mean and max Courant Numbers = 0.108471 0.200049
deltaT = 6.18157e-05
Time = 0.00139309

diagonal:  Solving for rhoCont, Initial residual = 0, Final residual = 0, No Iterations 0
diagonal:  Solving for rhoY_Y_N2, Initial residual = 0, Final residual = 0, No Iterations 0
diagonal:  Solving for rhoY_Y_O2, Initial residual = 0, Final residual = 0, No Iterations 0
diagonal:  Solving for rhoUx, Initial residual = 0, Final residual = 0, No Iterations 0
smoothSolver:  Solving for Ux, Initial residual = 1.42427e-08, Final residual = 1.3498e-17, No Iterations 2
diagonal:  Solving for rhoE, Initial residual = 0, Final residual = 0, No Iterations 0
smoothSolver:  Solving for h, Initial residual = 2.61727e-08, Final residual = 1.46606e-17, No Iterations 2
Sanity check: max(|rhoCont - rhoFromSpecies|) = 9.99201e-16

ExecutionTime = 1.23 s  ClockTime = 1 s

Mean and max Courant Numbers = 0.108821 0.202432
deltaT = 6.1073e-05
Time = 0.00145416

diagonal:  Solving for rhoCont, Initial residual = 0, Final residual = 0, No Iterations 0
diagonal:  Solving for rhoY_Y_N2, Initial residual = 0, Final residual = 0, No Iterations 0
diagonal:  Solving for rhoY_Y_O2, Initial residual = 0, Final residual = 0, No Iterations 0
diagonal:  Solving for rhoUx, Initial residual = 0, Final residual = 0, No Iterations 0
smoothSolver:  Solving for Ux, Initial residual = 1.58773e-08, Final residual = 1.92284e-17, No Iterations 2
diagonal:  Solving for rhoE, Initial residual = 0, Final residual = 0, No Iterations 0
smoothSolver:  Solving for h, Initial residual = 2.63669e-08, Final residual = 1.48936e-17, No Iterations 2
Sanity check: max(|rhoCont - rhoFromSpecies|) = 9.99201e-16

ExecutionTime = 1.29 s  ClockTime = 1 s

Mean and max Courant Numbers = 0.107907 0.198639
deltaT = 6.14915e-05
Time = 0.00151565

diagonal:  Solving for rhoCont, Initial residual = 0, Final residual = 0, No Iterations 0
diagonal:  Solving for rhoY_Y_N2, Initial residual = 0, Final residual = 0, No Iterations 0
diagonal:  Solving for rhoY_Y_O2, Initial residual = 0, Final residual = 0, No Iterations 0
diagonal:  Solving for rhoUx, Initial residual = 0, Final residual = 0, No Iterations 0
smoothSolver:  Solving for Ux, Initial residual = 1.53672e-08, Final residual = 1.83089e-17, No Iterations 2
diagonal:  Solving for rhoE, Initial residual = 0, Final residual = 0, No Iterations 0
smoothSolver:  Solving for h, Initial residual = 2.68501e-08, Final residual = 1.86455e-17, No Iterations 2
Sanity check: max(|rhoCont - rhoFromSpecies|) = 7.77156e-16

ExecutionTime = 1.34 s  ClockTime = 1 s

Mean and max Courant Numbers = 0.108975 0.19723
deltaT = 6.23552e-05
Time = 0.00157801

diagonal:  Solving for rhoCont, Initial residual = 0, Final residual = 0, No Iterations 0
diagonal:  Solving for rhoY_Y_N2, Initial residual = 0, Final residual = 0, No Iterations 0
diagonal:  Solving for rhoY_Y_O2, Initial residual = 0, Final residual = 0, No Iterations 0
diagonal:  Solving for rhoUx, Initial residual = 0, Final residual = 0, No Iterations 0
smoothSolver:  Solving for Ux, Initial residual = 1.29383e-08, Final residual = 1.19313e-17, No Iterations 2
diagonal:  Solving for rhoE, Initial residual = 0, Final residual = 0, No Iterations 0
smoothSolver:  Solving for h, Initial residual = 2.63989e-08, Final residual = 1.63026e-17, No Iterations 2
Sanity check: max(|rhoCont - rhoFromSpecies|) = 7.77156e-16

ExecutionTime = 1.4 s  ClockTime = 1 s

Mean and max Courant Numbers = 0.110848 0.20338
deltaT = 6.13188e-05
Time = 0.00163933

diagonal:  Solving for rhoCont, Initial residual = 0, Final residual = 0, No Iterations 0
diagonal:  Solving for rhoY_Y_N2, Initial residual = 0, Final residual = 0, No Iterations 0
diagonal:  Solving for rhoY_Y_O2, Initial residual = 0, Final residual = 0, No Iterations 0
diagonal:  Solving for rhoUx, Initial residual = 0, Final residual = 0, No Iterations 0
smoothSolver:  Solving for Ux, Initial residual = 1.38858e-08, Final residual = 1.53678e-17, No Iterations 2
diagonal:  Solving for rhoE, Initial residual = 0, Final residual = 0, No Iterations 0
smoothSolver:  Solving for h, Initial residual = 2.63507e-08, Final residual = 1.80903e-17, No Iterations 2
Sanity check: max(|rhoCont - rhoFromSpecies|) = 8.88178e-16

ExecutionTime = 1.46 s  ClockTime = 1 s

Mean and max Courant Numbers = 0.10942 0.199988
deltaT = 6.13225e-05
Time = 0.00170065

diagonal:  Solving for rhoCont, Initial residual = 0, Final residual = 0, No Iterations 0
diagonal:  Solving for rhoY_Y_N2, Initial residual = 0, Final residual = 0, No Iterations 0
diagonal:  Solving for rhoY_Y_O2, Initial residual = 0, Final residual = 0, No Iterations 0
diagonal:  Solving for rhoUx, Initial residual = 0, Final residual = 0, No Iterations 0
smoothSolver:  Solving for Ux, Initial residual = 1.42134e-08, Final residual = 1.18197e-17, No Iterations 2
diagonal:  Solving for rhoE, Initial residual = 0, Final residual = 0, No Iterations 0
smoothSolver:  Solving for h, Initial residual = 2.6765e-08, Final residual = 1.77356e-17, No Iterations 2
Sanity check: max(|rhoCont - rhoFromSpecies|) = 7.77156e-16

ExecutionTime = 1.52 s  ClockTime = 1 s

Mean and max Courant Numbers = 0.109787 0.1977
deltaT = 6.20359e-05
Time = 0.00176268

diagonal:  Solving for rhoCont, Initial residual = 0, Final residual = 0, No Iterations 0
diagonal:  Solving for rhoY_Y_N2, Initial residual = 0, Final residual = 0, No Iterations 0
diagonal:  Solving for rhoY_Y_O2, Initial residual = 0, Final residual = 0, No Iterations 0
diagonal:  Solving for rhoUx, Initial residual = 0, Final residual = 0, No Iterations 0
smoothSolver:  Solving for Ux, Initial residual = 1.25894e-08, Final residual = 1.70541e-17, No Iterations 2
diagonal:  Solving for rhoE, Initial residual = 0, Final residual = 0, No Iterations 0
smoothSolver:  Solving for h, Initial residual = 2.61269e-08, Final residual = 1.793e-17, No Iterations 2
Sanity check: max(|rhoCont - rhoFromSpecies|) = 7.77156e-16

ExecutionTime = 1.57 s  ClockTime = 1 s

Mean and max Courant Numbers = 0.111408 0.201671
deltaT = 6.15218e-05
Time = 0.00182421

diagonal:  Solving for rhoCont, Initial residual = 0, Final residual = 0, No Iterations 0
diagonal:  Solving for rhoY_Y_N2, Initial residual = 0, Final residual = 0, No Iterations 0
diagonal:  Solving for rhoY_Y_O2, Initial residual = 0, Final residual = 0, No Iterations 0
diagonal:  Solving for rhoUx, Initial residual = 0, Final residual = 0, No Iterations 0
smoothSolver:  Solving for Ux, Initial residual = 1.24909e-08, Final residual = 1.66867e-17, No Iterations 2
diagonal:  Solving for rhoE, Initial residual = 0, Final residual = 0, No Iterations 0
smoothSolver:  Solving for h, Initial residual = 2.48447e-08, Final residual = 1.47339e-17, No Iterations 2
Sanity check: max(|rhoCont - rhoFromSpecies|) = 8.88178e-16

ExecutionTime = 1.63 s  ClockTime = 1 s

Mean and max Courant Numbers = 0.110896 0.200628
deltaT = 6.13294e-05
Time = 0.00188554

diagonal:  Solving for rhoCont, Initial residual = 0, Final residual = 0, No Iterations 0
diagonal:  Solving for rhoY_Y_N2, Initial residual = 0, Final residual = 0, No Iterations 0
diagonal:  Solving for rhoY_Y_O2, Initial residual = 0, Final residual = 0, No Iterations 0
diagonal:  Solving for rhoUx, Initial residual = 0, Final residual = 0, No Iterations 0
smoothSolver:  Solving for Ux, Initial residual = 1.33056e-08, Final residual = 1.35795e-17, No Iterations 2
diagonal:  Solving for rhoE, Initial residual = 0, Final residual = 0, No Iterations 0
smoothSolver:  Solving for h, Initial residual = 2.53252e-08, Final residual = 1.71327e-17, No Iterations 2
Sanity check: max(|rhoCont - rhoFromSpecies|) = 8.88178e-16

ExecutionTime = 1.69 s  ClockTime = 1 s

Mean and max Courant Numbers = 0.110949 0.198741
deltaT = 6.17179e-05
Time = 0.00194725

diagonal:  Solving for rhoCont, Initial residual = 0, Final residual = 0, No Iterations 0
diagonal:  Solving for rhoY_Y_N2, Initial residual = 0, Final residual = 0, No Iterations 0
diagonal:  Solving for rhoY_Y_O2, Initial residual = 0, Final residual = 0, No Iterations 0
diagonal:  Solving for rhoUx, Initial residual = 0, Final residual = 0, No Iterations 0
smoothSolver:  Solving for Ux, Initial residual = 1.2139e-08, Final residual = 2.0319e-17, No Iterations 2
diagonal:  Solving for rhoE, Initial residual = 0, Final residual = 0, No Iterations 0
smoothSolver:  Solving for h, Initial residual = 2.51804e-08, Final residual = 1.46528e-17, No Iterations 2
Sanity check: max(|rhoCont - rhoFromSpecies|) = 9.99201e-16

ExecutionTime = 1.75 s  ClockTime = 1 s

Mean and max Courant Numbers = 0.111987 0.199645
deltaT = 6.18277e-05
Time = 0.00200908

diagonal:  Solving for rhoCont, Initial residual = 0, Final residual = 0, No Iterations 0
diagonal:  Solving for rhoY_Y_N2, Initial residual = 0, Final residual = 0, No Iterations 0
diagonal:  Solving for rhoY_Y_O2, Initial residual = 0, Final residual = 0, No Iterations 0
diagonal:  Solving for rhoUx, Initial residual = 0, Final residual = 0, No Iterations 0
smoothSolver:  Solving for Ux, Initial residual = 1.091e-08, Final residual = 1.49013e-17, No Iterations 2
diagonal:  Solving for rhoE, Initial residual = 0, Final residual = 0, No Iterations 0
smoothSolver:  Solving for h, Initial residual = 2.49724e-08, Final residual = 1.71857e-17, No Iterations 2
Sanity check: max(|rhoCont - rhoFromSpecies|) = 9.99201e-16

ExecutionTime = 1.8 s  ClockTime = 1 s

Mean and max Courant Numbers = 0.112575 0.201839
deltaT = 6.12644e-05
Time = 0.00207035

diagonal:  Solving for rhoCont, Initial residual = 0, Final residual = 0, No Iterations 0
diagonal:  Solving for rhoY_Y_N2, Initial residual = 0, Final residual = 0, No Iterations 0
diagonal:  Solving for rhoY_Y_O2, Initial residual = 0, Final residual = 0, No Iterations 0
diagonal:  Solving for rhoUx, Initial residual = 0, Final residual = 0, No Iterations 0
smoothSolver:  Solving for Ux, Initial residual = 1.20736e-08, Final residual = 1.13659e-17, No Iterations 2
diagonal:  Solving for rhoE, Initial residual = 0, Final residual = 0, No Iterations 0
smoothSolver:  Solving for h, Initial residual = 2.62573e-08, Final residual = 1.71822e-17, No Iterations 2
Sanity check: max(|rhoCont - rhoFromSpecies|) = 9.99201e-16

ExecutionTime = 1.86 s  ClockTime = 1 s

Mean and max Courant Numbers = 0.111963 0.199325
deltaT = 6.14718e-05
Time = 0.00213182

diagonal:  Solving for rhoCont, Initial residual = 0, Final residual = 0, No Iterations 0
diagonal:  Solving for rhoY_Y_N2, Initial residual = 0, Final residual = 0, No Iterations 0
diagonal:  Solving for rhoY_Y_O2, Initial residual = 0, Final residual = 0, No Iterations 0
diagonal:  Solving for rhoUx, Initial residual = 0, Final residual = 0, No Iterations 0
smoothSolver:  Solving for Ux, Initial residual = 1.1411e-08, Final residual = 1.94625e-17, No Iterations 2
diagonal:  Solving for rhoE, Initial residual = 0, Final residual = 0, No Iterations 0
smoothSolver:  Solving for h, Initial residual = 2.66968e-08, Final residual = 1.55942e-17, No Iterations 2
Sanity check: max(|rhoCont - rhoFromSpecies|) = 8.88178e-16

ExecutionTime = 1.91 s  ClockTime = 2 s

Mean and max Courant Numbers = 0.112671 0.198139
deltaT = 6.20491e-05
Time = 0.00219387

diagonal:  Solving for rhoCont, Initial residual = 0, Final residual = 0, No Iterations 0
diagonal:  Solving for rhoY_Y_N2, Initial residual = 0, Final residual = 0, No Iterations 0
diagonal:  Solving for rhoY_Y_O2, Initial residual = 0, Final residual = 0, No Iterations 0
diagonal:  Solving for rhoUx, Initial residual = 0, Final residual = 0, No Iterations 0
smoothSolver:  Solving for Ux, Initial residual = 9.47163e-09, Final residual = 1.49767e-17, No Iterations 2
diagonal:  Solving for rhoE, Initial residual = 0, Final residual = 0, No Iterations 0
smoothSolver:  Solving for h, Initial residual = 2.61116e-08, Final residual = 1.60224e-17, No Iterations 2
Sanity check: max(|rhoCont - rhoFromSpecies|) = 8.88178e-16

ExecutionTime = 1.97 s  ClockTime = 2 s

Mean and max Courant Numbers = 0.114081 0.202483
deltaT = 6.12883e-05
Time = 0.00225515

diagonal:  Solving for rhoCont, Initial residual = 0, Final residual = 0, No Iterations 0
diagonal:  Solving for rhoY_Y_N2, Initial residual = 0, Final residual = 0, No Iterations 0
diagonal:  Solving for rhoY_Y_O2, Initial residual = 0, Final residual = 0, No Iterations 0
diagonal:  Solving for rhoUx, Initial residual = 0, Final residual = 0, No Iterations 0
smoothSolver:  Solving for Ux, Initial residual = 1.08009e-08, Final residual = 2.02842e-17, No Iterations 2
diagonal:  Solving for rhoE, Initial residual = 0, Final residual = 0, No Iterations 0
smoothSolver:  Solving for h, Initial residual = 2.57565e-08, Final residual = 1.56305e-17, No Iterations 2
Sanity check: max(|rhoCont - rhoFromSpecies|) = 8.88178e-16

ExecutionTime = 2.03 s  ClockTime = 2 s

Mean and max Courant Numbers = 0.113087 0.200148
deltaT = 6.12431e-05
Time = 0.0023164

diagonal:  Solving for rhoCont, Initial residual = 0, Final residual = 0, No Iterations 0
diagonal:  Solving for rhoY_Y_N2, Initial residual = 0, Final residual = 0, No Iterations 0
diagonal:  Solving for rhoY_Y_O2, Initial residual = 0, Final residual = 0, No Iterations 0
diagonal:  Solving for rhoUx, Initial residual = 0, Final residual = 0, No Iterations 0
smoothSolver:  Solving for Ux, Initial residual = 1.07994e-08, Final residual = 1.87182e-17, No Iterations 2
diagonal:  Solving for rhoE, Initial residual = 0, Final residual = 0, No Iterations 0
smoothSolver:  Solving for h, Initial residual = 2.54585e-08, Final residual = 1.65468e-17, No Iterations 2
Sanity check: max(|rhoCont - rhoFromSpecies|) = 8.88178e-16

ExecutionTime = 2.12 s  ClockTime = 2 s

Mean and max Courant Numbers = 0.113336 0.197689
deltaT = 6.19589e-05
Time = 0.00237836

diagonal:  Solving for rhoCont, Initial residual = 0, Final residual = 0, No Iterations 0
diagonal:  Solving for rhoY_Y_N2, Initial residual = 0, Final residual = 0, No Iterations 0
diagonal:  Solving for rhoY_Y_O2, Initial residual = 0, Final residual = 0, No Iterations 0
diagonal:  Solving for rhoUx, Initial residual = 0, Final residual = 0, No Iterations 0
smoothSolver:  Solving for Ux, Initial residual = 9.34927e-09, Final residual = 1.5497e-17, No Iterations 2
diagonal:  Solving for rhoE, Initial residual = 0, Final residual = 0, No Iterations 0
smoothSolver:  Solving for h, Initial residual = 2.4375e-08, Final residual = 1.80662e-17, No Iterations 2
Sanity check: max(|rhoCont - rhoFromSpecies|) = 8.88178e-16

ExecutionTime = 2.18 s  ClockTime = 2 s

Mean and max Courant Numbers = 0.115014 0.20173
deltaT = 6.14275e-05
Time = 0.00243978

diagonal:  Solving for rhoCont, Initial residual = 0, Final residual = 0, No Iterations 0
diagonal:  Solving for rhoY_Y_N2, Initial residual = 0, Final residual = 0, No Iterations 0
diagonal:  Solving for rhoY_Y_O2, Initial residual = 0, Final residual = 0, No Iterations 0
diagonal:  Solving for rhoUx, Initial residual = 0, Final residual = 0, No Iterations 0
smoothSolver:  Solving for Ux, Initial residual = 9.72811e-09, Final residual = 2.45783e-17, No Iterations 2
diagonal:  Solving for rhoE, Initial residual = 0, Final residual = 0, No Iterations 0
smoothSolver:  Solving for h, Initial residual = 2.4e-08, Final residual = 1.79742e-17, No Iterations 2
Sanity check: max(|rhoCont - rhoFromSpecies|) = 9.99201e-16

ExecutionTime = 2.25 s  ClockTime = 2 s

Mean and max Courant Numbers = 0.114455 0.200786
deltaT = 6.11871e-05
Time = 0.00250097

diagonal:  Solving for rhoCont, Initial residual = 0, Final residual = 0, No Iterations 0
diagonal:  Solving for rhoY_Y_N2, Initial residual = 0, Final residual = 0, No Iterations 0
diagonal:  Solving for rhoY_Y_O2, Initial residual = 0, Final residual = 0, No Iterations 0
diagonal:  Solving for rhoUx, Initial residual = 0, Final residual = 0, No Iterations 0
smoothSolver:  Solving for Ux, Initial residual = 1.02771e-08, Final residual = 1.27227e-17, No Iterations 2
diagonal:  Solving for rhoE, Initial residual = 0, Final residual = 0, No Iterations 0
smoothSolver:  Solving for h, Initial residual = 2.56012e-08, Final residual = 1.71389e-17, No Iterations 2
Sanity check: max(|rhoCont - rhoFromSpecies|) = 9.99201e-16

ExecutionTime = 2.31 s  ClockTime = 2 s

Mean and max Courant Numbers = 0.114381 0.197811
deltaT = 6.18641e-05
Time = 0.00256283

diagonal:  Solving for rhoCont, Initial residual = 0, Final residual = 0, No Iterations 0
diagonal:  Solving for rhoY_Y_N2, Initial residual = 0, Final residual = 0, No Iterations 0
diagonal:  Solving for rhoY_Y_O2, Initial residual = 0, Final residual = 0, No Iterations 0
diagonal:  Solving for rhoUx, Initial residual = 0, Final residual = 0, No Iterations 0
smoothSolver:  Solving for Ux, Initial residual = 9.12297e-09, Final residual = 1.96e-17, No Iterations 2
diagonal:  Solving for rhoE, Initial residual = 0, Final residual = 0, No Iterations 0
smoothSolver:  Solving for h, Initial residual = 2.63438e-08, Final residual = 2.00243e-17, No Iterations 2
Sanity check: max(|rhoCont - rhoFromSpecies|) = 8.88178e-16

ExecutionTime = 2.36 s  ClockTime = 2 s

Mean and max Courant Numbers = 0.115964 0.200477
deltaT = 6.17168e-05
Time = 0.00262455

diagonal:  Solving for rhoCont, Initial residual = 0, Final residual = 0, No Iterations 0
diagonal:  Solving for rhoY_Y_N2, Initial residual = 0, Final residual = 0, No Iterations 0
diagonal:  Solving for rhoY_Y_O2, Initial residual = 0, Final residual = 0, No Iterations 0
diagonal:  Solving for rhoUx, Initial residual = 0, Final residual = 0, No Iterations 0
smoothSolver:  Solving for Ux, Initial residual = 8.49672e-09, Final residual = 1.9413e-17, No Iterations 2
diagonal:  Solving for rhoE, Initial residual = 0, Final residual = 0, No Iterations 0
smoothSolver:  Solving for h, Initial residual = 2.58359e-08, Final residual = 1.50343e-17, No Iterations 2
Sanity check: max(|rhoCont - rhoFromSpecies|) = 8.88178e-16

ExecutionTime = 2.42 s  ClockTime = 2 s

Mean and max Courant Numbers = 0.116052 0.201327
deltaT = 6.13099e-05
Time = 0.00268586

diagonal:  Solving for rhoCont, Initial residual = 0, Final residual = 0, No Iterations 0
diagonal:  Solving for rhoY_Y_N2, Initial residual = 0, Final residual = 0, No Iterations 0
diagonal:  Solving for rhoY_Y_O2, Initial residual = 0, Final residual = 0, No Iterations 0
diagonal:  Solving for rhoUx, Initial residual = 0, Final residual = 0, No Iterations 0
smoothSolver:  Solving for Ux, Initial residual = 9.47457e-09, Final residual = 1.94284e-17, No Iterations 2
diagonal:  Solving for rhoE, Initial residual = 0, Final residual = 0, No Iterations 0
smoothSolver:  Solving for h, Initial residual = 2.67403e-08, Final residual = 1.90672e-17, No Iterations 2
Sanity check: max(|rhoCont - rhoFromSpecies|) = 8.88178e-16

ExecutionTime = 2.48 s  ClockTime = 2 s

Mean and max Courant Numbers = 0.115673 0.198943
deltaT = 6.16356e-05
Time = 0.0027475

diagonal:  Solving for rhoCont, Initial residual = 0, Final residual = 0, No Iterations 0
diagonal:  Solving for rhoY_Y_N2, Initial residual = 0, Final residual = 0, No Iterations 0
diagonal:  Solving for rhoY_Y_O2, Initial residual = 0, Final residual = 0, No Iterations 0
diagonal:  Solving for rhoUx, Initial residual = 0, Final residual = 0, No Iterations 0
smoothSolver:  Solving for Ux, Initial residual = 8.94052e-09, Final residual = 2.18277e-17, No Iterations 2
diagonal:  Solving for rhoE, Initial residual = 0, Final residual = 0, No Iterations 0
smoothSolver:  Solving for h, Initial residual = 2.64819e-08, Final residual = 1.60477e-17, No Iterations 2
Sanity check: max(|rhoCont - rhoFromSpecies|) = 8.88178e-16

ExecutionTime = 2.53 s  ClockTime = 2 s

Mean and max Courant Numbers = 0.116612 0.198384
deltaT = 6.21378e-05
Time = 0.00280964

diagonal:  Solving for rhoCont, Initial residual = 0, Final residual = 0, No Iterations 0
diagonal:  Solving for rhoY_Y_N2, Initial residual = 0, Final residual = 0, No Iterations 0
diagonal:  Solving for rhoY_Y_O2, Initial residual = 0, Final residual = 0, No Iterations 0
diagonal:  Solving for rhoUx, Initial residual = 0, Final residual = 0, No Iterations 0
smoothSolver:  Solving for Ux, Initial residual = 7.67927e-09, Final residual = 1.94487e-17, No Iterations 2
diagonal:  Solving for rhoE, Initial residual = 0, Final residual = 0, No Iterations 0
smoothSolver:  Solving for h, Initial residual = 2.51567e-08, Final residual = 1.82835e-17, No Iterations 2
Sanity check: max(|rhoCont - rhoFromSpecies|) = 7.77156e-16

ExecutionTime = 2.6 s  ClockTime = 2 s

Mean and max Courant Numbers = 0.117938 0.202662
deltaT = 6.13217e-05
Time = 0.00287096

diagonal:  Solving for rhoCont, Initial residual = 0, Final residual = 0, No Iterations 0
diagonal:  Solving for rhoY_Y_N2, Initial residual = 0, Final residual = 0, No Iterations 0
diagonal:  Solving for rhoY_Y_O2, Initial residual = 0, Final residual = 0, No Iterations 0
diagonal:  Solving for rhoUx, Initial residual = 0, Final residual = 0, No Iterations 0
smoothSolver:  Solving for Ux, Initial residual = 8.88177e-09, Final residual = 1.67986e-17, No Iterations 2
diagonal:  Solving for rhoE, Initial residual = 0, Final residual = 0, No Iterations 0
smoothSolver:  Solving for h, Initial residual = 2.5241e-08, Final residual = 1.78173e-17, No Iterations 2
Sanity check: max(|rhoCont - rhoFromSpecies|) = 8.88178e-16

ExecutionTime = 2.66 s  ClockTime = 2 s

Mean and max Courant Numbers = 0.116814 0.199714
deltaT = 6.14097e-05
Time = 0.00293237

diagonal:  Solving for rhoCont, Initial residual = 0, Final residual = 0, No Iterations 0
diagonal:  Solving for rhoY_Y_N2, Initial residual = 0, Final residual = 0, No Iterations 0
diagonal:  Solving for rhoY_Y_O2, Initial residual = 0, Final residual = 0, No Iterations 0
diagonal:  Solving for rhoUx, Initial residual = 0, Final residual = 0, No Iterations 0
smoothSolver:  Solving for Ux, Initial residual = 8.75645e-09, Final residual = 2.63618e-17, No Iterations 2
diagonal:  Solving for rhoE, Initial residual = 0, Final residual = 0, No Iterations 0
smoothSolver:  Solving for h, Initial residual = 2.58569e-08, Final residual = 1.65943e-17, No Iterations 2
Sanity check: max(|rhoCont - rhoFromSpecies|) = 8.88178e-16

ExecutionTime = 2.72 s  ClockTime = 2 s

Mean and max Courant Numbers = 0.117323 0.197831
deltaT = 6.20831e-05
Time = 0.00299445

diagonal:  Solving for rhoCont, Initial residual = 0, Final residual = 0, No Iterations 0
diagonal:  Solving for rhoY_Y_N2, Initial residual = 0, Final residual = 0, No Iterations 0
diagonal:  Solving for rhoY_Y_O2, Initial residual = 0, Final residual = 0, No Iterations 0
diagonal:  Solving for rhoUx, Initial residual = 0, Final residual = 0, No Iterations 0
smoothSolver:  Solving for Ux, Initial residual = 7.43658e-09, Final residual = 1.41119e-17, No Iterations 2
diagonal:  Solving for rhoE, Initial residual = 0, Final residual = 0, No Iterations 0
smoothSolver:  Solving for h, Initial residual = 2.57311e-08, Final residual = 2.02178e-17, No Iterations 2
Sanity check: max(|rhoCont - rhoFromSpecies|) = 1.11022e-15

ExecutionTime = 2.78 s  ClockTime = 2 s

Mean and max Courant Numbers = 0.118949 0.20214
deltaT = 6.14259e-05
Time = 0.00305588

diagonal:  Solving for rhoCont, Initial residual = 0, Final residual = 0, No Iterations 0
diagonal:  Solving for rhoY_Y_N2, Initial residual = 0, Final residual = 0, No Iterations 0
diagonal:  Solving for rhoY_Y_O2, Initial residual = 0, Final residual = 0, No Iterations 0
diagonal:  Solving for rhoUx, Initial residual = 0, Final residual = 0, No Iterations 0
smoothSolver:  Solving for Ux, Initial residual = 8.20806e-09, Final residual = 1.70023e-17, No Iterations 2
diagonal:  Solving for rhoE, Initial residual = 0, Final residual = 0, No Iterations 0
smoothSolver:  Solving for h, Initial residual = 2.58658e-08, Final residual = 1.77404e-17, No Iterations 2
Sanity check: max(|rhoCont - rhoFromSpecies|) = 9.99201e-16

ExecutionTime = 2.84 s  ClockTime = 2 s

Mean and max Courant Numbers = 0.118095 0.200583
deltaT = 6.12475e-05
Time = 0.00311712

diagonal:  Solving for rhoCont, Initial residual = 0, Final residual = 0, No Iterations 0
diagonal:  Solving for rhoY_Y_N2, Initial residual = 0, Final residual = 0, No Iterations 0
diagonal:  Solving for rhoY_Y_O2, Initial residual = 0, Final residual = 0, No Iterations 0
diagonal:  Solving for rhoUx, Initial residual = 0, Final residual = 0, No Iterations 0
smoothSolver:  Solving for Ux, Initial residual = 8.49482e-09, Final residual = 1.90964e-17, No Iterations 2
diagonal:  Solving for rhoE, Initial residual = 0, Final residual = 0, No Iterations 0
smoothSolver:  Solving for h, Initial residual = 2.66867e-08, Final residual = 1.70691e-17, No Iterations 2
Sanity check: max(|rhoCont - rhoFromSpecies|) = 8.88178e-16

ExecutionTime = 2.9 s  ClockTime = 3 s

Mean and max Courant Numbers = 0.118105 0.197421
deltaT = 6.20476e-05
Time = 0.00317917

diagonal:  Solving for rhoCont, Initial residual = 0, Final residual = 0, No Iterations 0
diagonal:  Solving for rhoY_Y_N2, Initial residual = 0, Final residual = 0, No Iterations 0
diagonal:  Solving for rhoY_Y_O2, Initial residual = 0, Final residual = 0, No Iterations 0
diagonal:  Solving for rhoUx, Initial residual = 0, Final residual = 0, No Iterations 0
smoothSolver:  Solving for Ux, Initial residual = 7.57825e-09, Final residual = 1.94155e-17, No Iterations 2
diagonal:  Solving for rhoE, Initial residual = 0, Final residual = 0, No Iterations 0
smoothSolver:  Solving for h, Initial residual = 2.67026e-08, Final residual = 1.81514e-17, No Iterations 2
Sanity check: max(|rhoCont - rhoFromSpecies|) = 8.88178e-16

ExecutionTime = 2.95 s  ClockTime = 3 s

Mean and max Courant Numbers = 0.11998 0.201208
deltaT = 6.16752e-05
Time = 0.00324085

diagonal:  Solving for rhoCont, Initial residual = 0, Final residual = 0, No Iterations 0
diagonal:  Solving for rhoY_Y_N2, Initial residual = 0, Final residual = 0, No Iterations 0
diagonal:  Solving for rhoY_Y_O2, Initial residual = 0, Final residual = 0, No Iterations 0
diagonal:  Solving for rhoUx, Initial residual = 0, Final residual = 0, No Iterations 0
smoothSolver:  Solving for Ux, Initial residual = 7.68381e-09, Final residual = 2.07762e-17, No Iterations 2
diagonal:  Solving for rhoE, Initial residual = 0, Final residual = 0, No Iterations 0
smoothSolver:  Solving for h, Initial residual = 2.5994e-08, Final residual = 1.76302e-17, No Iterations 2
Sanity check: max(|rhoCont - rhoFromSpecies|) = 8.32667e-16

ExecutionTime = 3.01 s  ClockTime = 3 s

Mean and max Courant Numbers = 0.119676 0.201126
deltaT = 6.13298e-05
Time = 0.00330218

diagonal:  Solving for rhoCont, Initial residual = 0, Final residual = 0, No Iterations 0
diagonal:  Solving for rhoY_Y_N2, Initial residual = 0, Final residual = 0, No Iterations 0
diagonal:  Solving for rhoY_Y_O2, Initial residual = 0, Final residual = 0, No Iterations 0
diagonal:  Solving for rhoUx, Initial residual = 0, Final residual = 0, No Iterations 0
smoothSolver:  Solving for Ux, Initial residual = 8.34091e-09, Final residual = 1.74698e-17, No Iterations 2
diagonal:  Solving for rhoE, Initial residual = 0, Final residual = 0, No Iterations 0
smoothSolver:  Solving for h, Initial residual = 2.67546e-08, Final residual = 1.83873e-17, No Iterations 2
Sanity check: max(|rhoCont - rhoFromSpecies|) = 8.88178e-16

ExecutionTime = 3.07 s  ClockTime = 3 s

Mean and max Courant Numbers = 0.119405 0.197968
deltaT = 6.19594e-05
Time = 0.00336413

diagonal:  Solving for rhoCont, Initial residual = 0, Final residual = 0, No Iterations 0
diagonal:  Solving for rhoY_Y_N2, Initial residual = 0, Final residual = 0, No Iterations 0
diagonal:  Solving for rhoY_Y_O2, Initial residual = 0, Final residual = 0, No Iterations 0
diagonal:  Solving for rhoUx, Initial residual = 0, Final residual = 0, No Iterations 0
smoothSolver:  Solving for Ux, Initial residual = 7.67246e-09, Final residual = 1.81695e-17, No Iterations 2
diagonal:  Solving for rhoE, Initial residual = 0, Final residual = 0, No Iterations 0
smoothSolver:  Solving for h, Initial residual = 2.69027e-08, Final residual = 2.06483e-17, No Iterations 2
Sanity check: max(|rhoCont - rhoFromSpecies|) = 8.88178e-16

ExecutionTime = 3.13 s  ClockTime = 3 s

Mean and max Courant Numbers = 0.120959 0.199644
deltaT = 6.20698e-05
Time = 0.0034262

diagonal:  Solving for rhoCont, Initial residual = 0, Final residual = 0, No Iterations 0
diagonal:  Solving for rhoY_Y_N2, Initial residual = 0, Final residual = 0, No Iterations 0
diagonal:  Solving for rhoY_Y_O2, Initial residual = 0, Final residual = 0, No Iterations 0
diagonal:  Solving for rhoUx, Initial residual = 0, Final residual = 0, No Iterations 0
smoothSolver:  Solving for Ux, Initial residual = 7.0928e-09, Final residual = 1.79269e-17, No Iterations 2
diagonal:  Solving for rhoE, Initial residual = 0, Final residual = 0, No Iterations 0
smoothSolver:  Solving for h, Initial residual = 2.60357e-08, Final residual = 1.85856e-17, No Iterations 2
Sanity check: max(|rhoCont - rhoFromSpecies|) = 8.32667e-16

ExecutionTime = 3.21 s  ClockTime = 3 s

Mean and max Courant Numbers = 0.12154 0.201912
deltaT = 6.1482e-05
Time = 0.00348769

diagonal:  Solving for rhoCont, Initial residual = 0, Final residual = 0, No Iterations 0
diagonal:  Solving for rhoY_Y_N2, Initial residual = 0, Final residual = 0, No Iterations 0
diagonal:  Solving for rhoY_Y_O2, Initial residual = 0, Final residual = 0, No Iterations 0
diagonal:  Solving for rhoUx, Initial residual = 0, Final residual = 0, No Iterations 0
smoothSolver:  Solving for Ux, Initial residual = 8.05311e-09, Final residual = 2.45354e-17, No Iterations 2
diagonal:  Solving for rhoE, Initial residual = 0, Final residual = 0, No Iterations 0
smoothSolver:  Solving for h, Initial residual = 2.65405e-08, Final residual = 2.02583e-17, No Iterations 2
Sanity check: max(|rhoCont - rhoFromSpecies|) = 7.21645e-16

ExecutionTime = 3.28 s  ClockTime = 3 s

Mean and max Courant Numbers = 0.120791 0.199072
deltaT = 6.17685e-05
Time = 0.00354946

diagonal:  Solving for rhoCont, Initial residual = 0, Final residual = 0, No Iterations 0
diagonal:  Solving for rhoY_Y_N2, Initial residual = 0, Final residual = 0, No Iterations 0
diagonal:  Solving for rhoY_Y_O2, Initial residual = 0, Final residual = 0, No Iterations 0
diagonal:  Solving for rhoUx, Initial residual = 0, Final residual = 0, No Iterations 0
smoothSolver:  Solving for Ux, Initial residual = 7.71053e-09, Final residual = 2.59095e-17, No Iterations 2
diagonal:  Solving for rhoE, Initial residual = 0, Final residual = 0, No Iterations 0
smoothSolver:  Solving for h, Initial residual = 2.64002e-08, Final residual = 1.83721e-17, No Iterations 2
Sanity check: max(|rhoCont - rhoFromSpecies|) = 7.21645e-16

ExecutionTime = 3.34 s  ClockTime = 3 s

Mean and max Courant Numbers = 0.121699 0.197975
deltaT = 6.24005e-05
Time = 0.00361186

diagonal:  Solving for rhoCont, Initial residual = 0, Final residual = 0, No Iterations 0
diagonal:  Solving for rhoY_Y_N2, Initial residual = 0, Final residual = 0, No Iterations 0
diagonal:  Solving for rhoY_Y_O2, Initial residual = 0, Final residual = 0, No Iterations 0
diagonal:  Solving for rhoUx, Initial residual = 0, Final residual = 0, No Iterations 0
smoothSolver:  Solving for Ux, Initial residual = 6.68274e-09, Final residual = 1.68889e-17, No Iterations 2
diagonal:  Solving for rhoE, Initial residual = 0, Final residual = 0, No Iterations 0
smoothSolver:  Solving for h, Initial residual = 2.64481e-08, Final residual = 1.81289e-17, No Iterations 2
Sanity check: max(|rhoCont - rhoFromSpecies|) = 8.32667e-16

ExecutionTime = 3.39 s  ClockTime = 3 s

Mean and max Courant Numbers = 0.12333 0.202666
deltaT = 6.15797e-05
Time = 0.00367344

diagonal:  Solving for rhoCont, Initial residual = 0, Final residual = 0, No Iterations 0
diagonal:  Solving for rhoY_Y_N2, Initial residual = 0, Final residual = 0, No Iterations 0
diagonal:  Solving for rhoY_Y_O2, Initial residual = 0, Final residual = 0, No Iterations 0
diagonal:  Solving for rhoUx, Initial residual = 0, Final residual = 0, No Iterations 0
smoothSolver:  Solving for Ux, Initial residual = 7.74634e-09, Final residual = 1.59305e-17, No Iterations 2
diagonal:  Solving for rhoE, Initial residual = 0, Final residual = 0, No Iterations 0
smoothSolver:  Solving for h, Initial residual = 2.6618e-08, Final residual = 2.36512e-17, No Iterations 2
Sanity check: max(|rhoCont - rhoFromSpecies|) = 8.32667e-16

ExecutionTime = 3.45 s  ClockTime = 3 s

Mean and max Courant Numbers = 0.122145 0.19994
deltaT = 6.15983e-05
Time = 0.00373503

diagonal:  Solving for rhoCont, Initial residual = 0, Final residual = 0, No Iterations 0
diagonal:  Solving for rhoY_Y_N2, Initial residual = 0, Final residual = 0, No Iterations 0
diagonal:  Solving for rhoY_Y_O2, Initial residual = 0, Final residual = 0, No Iterations 0
diagonal:  Solving for rhoUx, Initial residual = 0, Final residual = 0, No Iterations 0
smoothSolver:  Solving for Ux, Initial residual = 7.79465e-09, Final residual = 2.04716e-17, No Iterations 2
diagonal:  Solving for rhoE, Initial residual = 0, Final residual = 0, No Iterations 0
smoothSolver:  Solving for h, Initial residual = 2.71688e-08, Final residual = 1.89429e-17, No Iterations 2
Sanity check: max(|rhoCont - rhoFromSpecies|) = 7.77156e-16

ExecutionTime = 3.51 s  ClockTime = 3 s

Mean and max Courant Numbers = 0.122531 0.197536
deltaT = 6.23667e-05
Time = 0.0037974

diagonal:  Solving for rhoCont, Initial residual = 0, Final residual = 0, No Iterations 0
diagonal:  Solving for rhoY_Y_N2, Initial residual = 0, Final residual = 0, No Iterations 0
diagonal:  Solving for rhoY_Y_O2, Initial residual = 0, Final residual = 0, No Iterations 0
diagonal:  Solving for rhoUx, Initial residual = 0, Final residual = 0, No Iterations 0
smoothSolver:  Solving for Ux, Initial residual = 6.8593e-09, Final residual = 1.71292e-17, No Iterations 2
diagonal:  Solving for rhoE, Initial residual = 0, Final residual = 0, No Iterations 0
smoothSolver:  Solving for h, Initial residual = 2.71551e-08, Final residual = 2.19185e-17, No Iterations 2
Sanity check: max(|rhoCont - rhoFromSpecies|) = 8.32667e-16

ExecutionTime = 3.57 s  ClockTime = 3 s

Mean and max Courant Numbers = 0.124388 0.201873
deltaT = 6.17882e-05
Time = 0.00385919

diagonal:  Solving for rhoCont, Initial residual = 0, Final residual = 0, No Iterations 0
diagonal:  Solving for rhoY_Y_N2, Initial residual = 0, Final residual = 0, No Iterations 0
diagonal:  Solving for rhoY_Y_O2, Initial residual = 0, Final residual = 0, No Iterations 0
diagonal:  Solving for rhoUx, Initial residual = 0, Final residual = 0, No Iterations 0
smoothSolver:  Solving for Ux, Initial residual = 7.25325e-09, Final residual = 2.49973e-17, No Iterations 2
diagonal:  Solving for rhoE, Initial residual = 0, Final residual = 0, No Iterations 0
smoothSolver:  Solving for h, Initial residual = 2.643e-08, Final residual = 2.14108e-17, No Iterations 2
Sanity check: max(|rhoCont - rhoFromSpecies|) = 8.32667e-16

ExecutionTime = 3.63 s  ClockTime = 3 s

Mean and max Courant Numbers = 0.12365 0.200904
deltaT = 6.151e-05
Time = 0.0039207

diagonal:  Solving for rhoCont, Initial residual = 0, Final residual = 0, No Iterations 0
diagonal:  Solving for rhoY_Y_N2, Initial residual = 0, Final residual = 0, No Iterations 0
diagonal:  Solving for rhoY_Y_O2, Initial residual = 0, Final residual = 0, No Iterations 0
diagonal:  Solving for rhoUx, Initial residual = 0, Final residual = 0, No Iterations 0
smoothSolver:  Solving for Ux, Initial residual = 7.60391e-09, Final residual = 2.56277e-17, No Iterations 2
diagonal:  Solving for rhoE, Initial residual = 0, Final residual = 0, No Iterations 0
smoothSolver:  Solving for h, Initial residual = 2.7339e-08, Final residual = 2.27857e-17, No Iterations 2
Sanity check: max(|rhoCont - rhoFromSpecies|) = 8.88178e-16

ExecutionTime = 3.68 s  ClockTime = 3 s

Mean and max Courant Numbers = 0.123455 0.197208
deltaT = 6.23809e-05
Time = 0.00398308

diagonal:  Solving for rhoCont, Initial residual = 0, Final residual = 0, No Iterations 0
diagonal:  Solving for rhoY_Y_N2, Initial residual = 0, Final residual = 0, No Iterations 0
diagonal:  Solving for rhoY_Y_O2, Initial residual = 0, Final residual = 0, No Iterations 0
diagonal:  Solving for rhoUx, Initial residual = 0, Final residual = 0, No Iterations 0
smoothSolver:  Solving for Ux, Initial residual = 6.89598e-09, Final residual = 1.67219e-17, No Iterations 2
diagonal:  Solving for rhoE, Initial residual = 0, Final residual = 0, No Iterations 0
smoothSolver:  Solving for h, Initial residual = 2.73878e-08, Final residual = 2.16592e-17, No Iterations 2
Sanity check: max(|rhoCont - rhoFromSpecies|) = 8.88178e-16

ExecutionTime = 3.74 s  ClockTime = 3 s

Mean and max Courant Numbers = 0.125539 0.200745
deltaT = 6.21493e-05
Time = 0.00404523

diagonal:  Solving for rhoCont, Initial residual = 0, Final residual = 0, No Iterations 0
diagonal:  Solving for rhoY_Y_N2, Initial residual = 0, Final residual = 0, No Iterations 0
diagonal:  Solving for rhoY_Y_O2, Initial residual = 0, Final residual = 0, No Iterations 0
diagonal:  Solving for rhoUx, Initial residual = 0, Final residual = 0, No Iterations 0
smoothSolver:  Solving for Ux, Initial residual = 6.77049e-09, Final residual = 1.674e-17, No Iterations 2
diagonal:  Solving for rhoE, Initial residual = 0, Final residual = 0, No Iterations 0
smoothSolver:  Solving for h, Initial residual = 2.5981e-08, Final residual = 2.32513e-17, No Iterations 2
Sanity check: max(|rhoCont - rhoFromSpecies|) = 7.77156e-16

ExecutionTime = 3.8 s  ClockTime = 3 s

Mean and max Courant Numbers = 0.125488 0.201378
deltaT = 6.17239e-05
Time = 0.00410695

diagonal:  Solving for rhoCont, Initial residual = 0, Final residual = 0, No Iterations 0
diagonal:  Solving for rhoY_Y_N2, Initial residual = 0, Final residual = 0, No Iterations 0
diagonal:  Solving for rhoY_Y_O2, Initial residual = 0, Final residual = 0, No Iterations 0
diagonal:  Solving for rhoUx, Initial residual = 0, Final residual = 0, No Iterations 0
smoothSolver:  Solving for Ux, Initial residual = 7.4215e-09, Final residual = 2.24428e-17, No Iterations 2
diagonal:  Solving for rhoE, Initial residual = 0, Final residual = 0, No Iterations 0
smoothSolver:  Solving for h, Initial residual = 2.67244e-08, Final residual = 1.7077e-17, No Iterations 2
Sanity check: max(|rhoCont - rhoFromSpecies|) = 7.21645e-16

ExecutionTime = 3.86 s  ClockTime = 3 s

Mean and max Courant Numbers = 0.125052 0.19817
deltaT = 6.2294e-05
Time = 0.00416925

diagonal:  Solving for rhoCont, Initial residual = 0, Final residual = 0, No Iterations 0
diagonal:  Solving for rhoY_Y_N2, Initial residual = 0, Final residual = 0, No Iterations 0
diagonal:  Solving for rhoY_Y_O2, Initial residual = 0, Final residual = 0, No Iterations 0
diagonal:  Solving for rhoUx, Initial residual = 0, Final residual = 0, No Iterations 0
smoothSolver:  Solving for Ux, Initial residual = 6.97455e-09, Final residual = 1.72149e-17, No Iterations 2
diagonal:  Solving for rhoE, Initial residual = 0, Final residual = 0, No Iterations 0
smoothSolver:  Solving for h, Initial residual = 2.70714e-08, Final residual = 1.959e-17, No Iterations 2
Sanity check: max(|rhoCont - rhoFromSpecies|) = 7.77156e-16

ExecutionTime = 3.93 s  ClockTime = 4 s

Mean and max Courant Numbers = 0.126557 0.198909
deltaT = 6.26355e-05
Time = 0.00423188

diagonal:  Solving for rhoCont, Initial residual = 0, Final residual = 0, No Iterations 0
diagonal:  Solving for rhoY_Y_N2, Initial residual = 0, Final residual = 0, No Iterations 0
diagonal:  Solving for rhoY_Y_O2, Initial residual = 0, Final residual = 0, No Iterations 0
diagonal:  Solving for rhoUx, Initial residual = 0, Final residual = 0, No Iterations 0
smoothSolver:  Solving for Ux, Initial residual = 6.1713e-09, Final residual = 1.75461e-17, No Iterations 2
diagonal:  Solving for rhoE, Initial residual = 0, Final residual = 0, No Iterations 0
smoothSolver:  Solving for h, Initial residual = 2.69107e-08, Final residual = 1.80333e-17, No Iterations 2
Sanity check: max(|rhoCont - rhoFromSpecies|) = 8.32667e-16

ExecutionTime = 3.98 s  ClockTime = 4 s

Mean and max Courant Numbers = 0.127629 0.202367
deltaT = 6.19029e-05
Time = 0.00429379

diagonal:  Solving for rhoCont, Initial residual = 0, Final residual = 0, No Iterations 0
diagonal:  Solving for rhoY_Y_N2, Initial residual = 0, Final residual = 0, No Iterations 0
diagonal:  Solving for rhoY_Y_O2, Initial residual = 0, Final residual = 0, No Iterations 0
diagonal:  Solving for rhoUx, Initial residual = 0, Final residual = 0, No Iterations 0
smoothSolver:  Solving for Ux, Initial residual = 7.04043e-09, Final residual = 2.06202e-17, No Iterations 2
diagonal:  Solving for rhoE, Initial residual = 0, Final residual = 0, No Iterations 0
smoothSolver:  Solving for h, Initial residual = 2.73817e-08, Final residual = 1.78189e-17, No Iterations 2
Sanity check: max(|rhoCont - rhoFromSpecies|) = 7.77156e-16

ExecutionTime = 4.04 s  ClockTime = 4 s

Mean and max Courant Numbers = 0.126538 0.199293
deltaT = 6.21226e-05
Time = 0.00435591

diagonal:  Solving for rhoCont, Initial residual = 0, Final residual = 0, No Iterations 0
diagonal:  Solving for rhoY_Y_N2, Initial residual = 0, Final residual = 0, No Iterations 0
diagonal:  Solving for rhoY_Y_O2, Initial residual = 0, Final residual = 0, No Iterations 0
diagonal:  Solving for rhoUx, Initial residual = 0, Final residual = 0, No Iterations 0
smoothSolver:  Solving for Ux, Initial residual = 6.94587e-09, Final residual = 1.62846e-17, No Iterations 2
diagonal:  Solving for rhoE, Initial residual = 0, Final residual = 0, No Iterations 0
smoothSolver:  Solving for h, Initial residual = 2.80738e-08, Final residual = 2.24203e-17, No Iterations 2
Sanity check: max(|rhoCont - rhoFromSpecies|) = 7.77156e-16

ExecutionTime = 4.1 s  ClockTime = 4 s

Mean and max Courant Numbers = 0.127315 0.197816
deltaT = 6.28084e-05
Time = 0.00441872

diagonal:  Solving for rhoCont, Initial residual = 0, Final residual = 0, No Iterations 0
diagonal:  Solving for rhoY_Y_N2, Initial residual = 0, Final residual = 0, No Iterations 0
diagonal:  Solving for rhoY_Y_O2, Initial residual = 0, Final residual = 0, No Iterations 0
diagonal:  Solving for rhoUx, Initial residual = 0, Final residual = 0, No Iterations 0
smoothSolver:  Solving for Ux, Initial residual = 6.03986e-09, Final residual = 2.39977e-17, No Iterations 2
diagonal:  Solving for rhoE, Initial residual = 0, Final residual = 0, No Iterations 0
smoothSolver:  Solving for h, Initial residual = 2.77254e-08, Final residual = 2.0911e-17, No Iterations 2
Sanity check: max(|rhoCont - rhoFromSpecies|) = 7.77156e-16

ExecutionTime = 4.16 s  ClockTime = 4 s

Mean and max Courant Numbers = 0.129084 0.20239
deltaT = 6.20667e-05
Time = 0.00448078

diagonal:  Solving for rhoCont, Initial residual = 0, Final residual = 0, No Iterations 0
diagonal:  Solving for rhoY_Y_N2, Initial residual = 0, Final residual = 0, No Iterations 0
diagonal:  Solving for rhoY_Y_O2, Initial residual = 0, Final residual = 0, No Iterations 0
diagonal:  Solving for rhoUx, Initial residual = 0, Final residual = 0, No Iterations 0
smoothSolver:  Solving for Ux, Initial residual = 6.70467e-09, Final residual = 2.15284e-17, No Iterations 2
diagonal:  Solving for rhoE, Initial residual = 0, Final residual = 0, No Iterations 0
smoothSolver:  Solving for h, Initial residual = 2.72047e-08, Final residual = 1.90694e-17, No Iterations 2
Sanity check: max(|rhoCont - rhoFromSpecies|) = 7.21645e-16

ExecutionTime = 4.21 s  ClockTime = 4 s

Mean and max Courant Numbers = 0.127996 0.200256
deltaT = 6.19872e-05
Time = 0.00454277

diagonal:  Solving for rhoCont, Initial residual = 0, Final residual = 0, No Iterations 0
diagonal:  Solving for rhoY_Y_N2, Initial residual = 0, Final residual = 0, No Iterations 0
diagonal:  Solving for rhoY_Y_O2, Initial residual = 0, Final residual = 0, No Iterations 0
diagonal:  Solving for rhoUx, Initial residual = 0, Final residual = 0, No Iterations 0
smoothSolver:  Solving for Ux, Initial residual = 6.85442e-09, Final residual = 1.96363e-17, No Iterations 2
diagonal:  Solving for rhoE, Initial residual = 0, Final residual = 0, No Iterations 0
smoothSolver:  Solving for h, Initial residual = 2.75997e-08, Final residual = 2.02571e-17, No Iterations 2
Sanity check: max(|rhoCont - rhoFromSpecies|) = 7.21645e-16

ExecutionTime = 4.27 s  ClockTime = 4 s

Mean and max Courant Numbers = 0.128205 0.197432
deltaT = 6.27934e-05
Time = 0.00460556

diagonal:  Solving for rhoCont, Initial residual = 0, Final residual = 0, No Iterations 0
diagonal:  Solving for rhoY_Y_N2, Initial residual = 0, Final residual = 0, No Iterations 0
diagonal:  Solving for rhoY_Y_O2, Initial residual = 0, Final residual = 0, No Iterations 0
diagonal:  Solving for rhoUx, Initial residual = 0, Final residual = 0, No Iterations 0
smoothSolver:  Solving for Ux, Initial residual = 6.05131e-09, Final residual = 2.70501e-17, No Iterations 2
diagonal:  Solving for rhoE, Initial residual = 0, Final residual = 0, No Iterations 0
smoothSolver:  Solving for h, Initial residual = 2.72074e-08, Final residual = 2.14807e-17, No Iterations 2
Sanity check: max(|rhoCont - rhoFromSpecies|) = 7.21645e-16

ExecutionTime = 4.33 s  ClockTime = 4 s

Mean and max Courant Numbers = 0.130224 0.201461
deltaT = 6.2338e-05
Time = 0.0046679

diagonal:  Solving for rhoCont, Initial residual = 0, Final residual = 0, No Iterations 0
diagonal:  Solving for rhoY_Y_N2, Initial residual = 0, Final residual = 0, No Iterations 0
diagonal:  Solving for rhoY_Y_O2, Initial residual = 0, Final residual = 0, No Iterations 0
diagonal:  Solving for rhoUx, Initial residual = 0, Final residual = 0, No Iterations 0
smoothSolver:  Solving for Ux, Initial residual = 6.28162e-09, Final residual = 2.57092e-17, No Iterations 2
diagonal:  Solving for rhoE, Initial residual = 0, Final residual = 0, No Iterations 0
smoothSolver:  Solving for h, Initial residual = 2.65933e-08, Final residual = 1.84118e-17, No Iterations 2
Sanity check: max(|rhoCont - rhoFromSpecies|) = 7.21645e-16

ExecutionTime = 4.39 s  ClockTime = 4 s

Mean and max Courant Numbers = 0.129692 0.20116
deltaT = 6.19786e-05
Time = 0.00472988

diagonal:  Solving for rhoCont, Initial residual = 0, Final residual = 0, No Iterations 0
diagonal:  Solving for rhoY_Y_N2, Initial residual = 0, Final residual = 0, No Iterations 0
diagonal:  Solving for rhoY_Y_O2, Initial residual = 0, Final residual = 0, No Iterations 0
diagonal:  Solving for rhoUx, Initial residual = 0, Final residual = 0, No Iterations 0
smoothSolver:  Solving for Ux, Initial residual = 6.76483e-09, Final residual = 2.90535e-17, No Iterations 2
diagonal:  Solving for rhoE, Initial residual = 0, Final residual = 0, No Iterations 0
smoothSolver:  Solving for h, Initial residual = 2.75632e-08, Final residual = 1.98783e-17, No Iterations 2
Sanity check: max(|rhoCont - rhoFromSpecies|) = 6.66134e-16

ExecutionTime = 4.45 s  ClockTime = 4 s

Mean and max Courant Numbers = 0.129292 0.197331
deltaT = 6.2817e-05
Time = 0.0047927

diagonal:  Solving for rhoCont, Initial residual = 0, Final residual = 0, No Iterations 0
diagonal:  Solving for rhoY_Y_N2, Initial residual = 0, Final residual = 0, No Iterations 0
diagonal:  Solving for rhoY_Y_O2, Initial residual = 0, Final residual = 0, No Iterations 0
diagonal:  Solving for rhoUx, Initial residual = 0, Final residual = 0, No Iterations 0
smoothSolver:  Solving for Ux, Initial residual = 6.12758e-09, Final residual = 2.49007e-17, No Iterations 2
diagonal:  Solving for rhoE, Initial residual = 0, Final residual = 0, No Iterations 0
smoothSolver:  Solving for h, Initial residual = 2.80563e-08, Final residual = 1.86553e-17, No Iterations 2
Sanity check: max(|rhoCont - rhoFromSpecies|) = 7.21645e-16

ExecutionTime = 4.5 s  ClockTime = 4 s

Mean and max Courant Numbers = 0.131365 0.200194
deltaT = 6.27562e-05
Time = 0.00485545

diagonal:  Solving for rhoCont, Initial residual = 0, Final residual = 0, No Iterations 0
diagonal:  Solving for rhoY_Y_N2, Initial residual = 0, Final residual = 0, No Iterations 0
diagonal:  Solving for rhoY_Y_O2, Initial residual = 0, Final residual = 0, No Iterations 0
diagonal:  Solving for rhoUx, Initial residual = 0, Final residual = 0, No Iterations 0
smoothSolver:  Solving for Ux, Initial residual = 5.86401e-09, Final residual = 2.02402e-17, No Iterations 2
diagonal:  Solving for rhoE, Initial residual = 0, Final residual = 0, No Iterations 0
smoothSolver:  Solving for h, Initial residual = 2.7803e-08, Final residual = 2.1115e-17, No Iterations 2
Sanity check: max(|rhoCont - rhoFromSpecies|) = 7.77156e-16

ExecutionTime = 4.56 s  ClockTime = 4 s

Mean and max Courant Numbers = 0.131634 0.201551
deltaT = 6.22734e-05
Time = 0.00491773

diagonal:  Solving for rhoCont, Initial residual = 0, Final residual = 0, No Iterations 0
diagonal:  Solving for rhoY_Y_N2, Initial residual = 0, Final residual = 0, No Iterations 0
diagonal:  Solving for rhoY_Y_O2, Initial residual = 0, Final residual = 0, No Iterations 0
diagonal:  Solving for rhoUx, Initial residual = 0, Final residual = 0, No Iterations 0
smoothSolver:  Solving for Ux, Initial residual = 6.51918e-09, Final residual = 2.09741e-17, No Iterations 2
diagonal:  Solving for rhoE, Initial residual = 0, Final residual = 0, No Iterations 0
smoothSolver:  Solving for h, Initial residual = 2.8607e-08, Final residual = 2.45298e-17, No Iterations 2
Sanity check: max(|rhoCont - rhoFromSpecies|) = 7.77156e-16

ExecutionTime = 4.62 s  ClockTime = 4 s

Mean and max Courant Numbers = 0.131035 0.198747
deltaT = 6.26659e-05
Time = 0.00498039

diagonal:  Solving for rhoCont, Initial residual = 0, Final residual = 0, No Iterations 0
diagonal:  Solving for rhoY_Y_N2, Initial residual = 0, Final residual = 0, No Iterations 0
diagonal:  Solving for rhoY_Y_O2, Initial residual = 0, Final residual = 0, No Iterations 0
diagonal:  Solving for rhoUx, Initial residual = 0, Final residual = 0, No Iterations 0
smoothSolver:  Solving for Ux, Initial residual = 6.16746e-09, Final residual = 2.41227e-17, No Iterations 2
diagonal:  Solving for rhoE, Initial residual = 0, Final residual = 0, No Iterations 0
smoothSolver:  Solving for h, Initial residual = 2.85077e-08, Final residual = 1.94096e-17, No Iterations 2
Sanity check: max(|rhoCont - rhoFromSpecies|) = 7.77156e-16

ExecutionTime = 4.69 s  ClockTime = 4 s

Mean and max Courant Numbers = 0.132213 0.198176
deltaT = 6.32426e-05
Time = 0.00504364

diagonal:  Solving for rhoCont, Initial residual = 0, Final residual = 0, No Iterations 0
diagonal:  Solving for rhoY_Y_N2, Initial residual = 0, Final residual = 0, No Iterations 0
diagonal:  Solving for rhoY_Y_O2, Initial residual = 0, Final residual = 0, No Iterations 0
diagonal:  Solving for rhoUx, Initial residual = 0, Final residual = 0, No Iterations 0
smoothSolver:  Solving for Ux, Initial residual = 5.3719e-09, Final residual = 2.8671e-17, No Iterations 2
diagonal:  Solving for rhoE, Initial residual = 0, Final residual = 0, No Iterations 0
smoothSolver:  Solving for h, Initial residual = 2.81496e-08, Final residual = 2.29299e-17, No Iterations 2
Sanity check: max(|rhoCont - rhoFromSpecies|) = 7.21645e-16

ExecutionTime = 4.77 s  ClockTime = 4 s

Mean and max Courant Numbers = 0.133816 0.202704
deltaT = 6.23992e-05
Time = 0.00510603

diagonal:  Solving for rhoCont, Initial residual = 0, Final residual = 0, No Iterations 0
diagonal:  Solving for rhoY_Y_N2, Initial residual = 0, Final residual = 0, No Iterations 0
diagonal:  Solving for rhoY_Y_O2, Initial residual = 0, Final residual = 0, No Iterations 0
diagonal:  Solving for rhoUx, Initial residual = 0, Final residual = 0, No Iterations 0
smoothSolver:  Solving for Ux, Initial residual = 6.18875e-09, Final residual = 2.21689e-17, No Iterations 2
diagonal:  Solving for rhoE, Initial residual = 0, Final residual = 0, No Iterations 0
smoothSolver:  Solving for h, Initial residual = 2.8424e-08, Final residual = 2.4183e-17, No Iterations 2
Sanity check: max(|rhoCont - rhoFromSpecies|) = 7.77156e-16

ExecutionTime = 4.83 s  ClockTime = 4 s

Mean and max Courant Numbers = 0.132446 0.199706
deltaT = 6.2491e-05
Time = 0.00516853

diagonal:  Solving for rhoCont, Initial residual = 0, Final residual = 0, No Iterations 0
diagonal:  Solving for rhoY_Y_N2, Initial residual = 0, Final residual = 0, No Iterations 0
diagonal:  Solving for rhoY_Y_O2, Initial residual = 0, Final residual = 0, No Iterations 0
diagonal:  Solving for rhoUx, Initial residual = 0, Final residual = 0, No Iterations 0
smoothSolver:  Solving for Ux, Initial residual = 6.2155e-09, Final residual = 2.34684e-17, No Iterations 2
diagonal:  Solving for rhoE, Initial residual = 0, Final residual = 0, No Iterations 0
smoothSolver:  Solving for h, Initial residual = 2.91513e-08, Final residual = 2.31162e-17, No Iterations 2
Sanity check: max(|rhoCont - rhoFromSpecies|) = 7.77156e-16

ExecutionTime = 4.88 s  ClockTime = 5 s

Mean and max Courant Numbers = 0.132972 0.197744
deltaT = 6.3204e-05
Time = 0.00523173

diagonal:  Solving for rhoCont, Initial residual = 0, Final residual = 0, No Iterations 0
diagonal:  Solving for rhoY_Y_N2, Initial residual = 0, Final residual = 0, No Iterations 0
diagonal:  Solving for rhoY_Y_O2, Initial residual = 0, Final residual = 0, No Iterations 0
diagonal:  Solving for rhoUx, Initial residual = 0, Final residual = 0, No Iterations 0
smoothSolver:  Solving for Ux, Initial residual = 5.50043e-09, Final residual = 2.38321e-17, No Iterations 2
diagonal:  Solving for rhoE, Initial residual = 0, Final residual = 0, No Iterations 0
smoothSolver:  Solving for h, Initial residual = 2.9248e-08, Final residual = 2.81537e-17, No Iterations 2
Sanity check: max(|rhoCont - rhoFromSpecies|) = 7.21645e-16

ExecutionTime = 4.94 s  ClockTime = 5 s

Mean and max Courant Numbers = 0.134837 0.201992
deltaT = 6.25807e-05
Time = 0.00529431

diagonal:  Solving for rhoCont, Initial residual = 0, Final residual = 0, No Iterations 0
diagonal:  Solving for rhoY_Y_N2, Initial residual = 0, Final residual = 0, No Iterations 0
diagonal:  Solving for rhoY_Y_O2, Initial residual = 0, Final residual = 0, No Iterations 0
diagonal:  Solving for rhoUx, Initial residual = 0, Final residual = 0, No Iterations 0
smoothSolver:  Solving for Ux, Initial residual = 5.90428e-09, Final residual = 1.80816e-17, No Iterations 2
diagonal:  Solving for rhoE, Initial residual = 0, Final residual = 0, No Iterations 0
smoothSolver:  Solving for h, Initial residual = 2.91102e-08, Final residual = 2.42392e-17, No Iterations 2
Sanity check: max(|rhoCont - rhoFromSpecies|) = 6.66134e-16

ExecutionTime = 5 s  ClockTime = 5 s

Mean and max Courant Numbers = 0.133933 0.200649
deltaT = 6.23782e-05
Time = 0.00535669

diagonal:  Solving for rhoCont, Initial residual = 0, Final residual = 0, No Iterations 0
diagonal:  Solving for rhoY_Y_N2, Initial residual = 0, Final residual = 0, No Iterations 0
diagonal:  Solving for rhoY_Y_O2, Initial residual = 0, Final residual = 0, No Iterations 0
diagonal:  Solving for rhoUx, Initial residual = 0, Final residual = 0, No Iterations 0
smoothSolver:  Solving for Ux, Initial residual = 6.14566e-09, Final residual = 1.94866e-17, No Iterations 2
diagonal:  Solving for rhoE, Initial residual = 0, Final residual = 0, No Iterations 0
smoothSolver:  Solving for h, Initial residual = 2.97904e-08, Final residual = 2.22411e-17, No Iterations 2
Sanity check: max(|rhoCont - rhoFromSpecies|) = 6.66134e-16

ExecutionTime = 5.05 s  ClockTime = 5 s

Mean and max Courant Numbers = 0.133879 0.197404
deltaT = 6.31986e-05
Time = 0.00541989

diagonal:  Solving for rhoCont, Initial residual = 0, Final residual = 0, No Iterations 0
diagonal:  Solving for rhoY_Y_N2, Initial residual = 0, Final residual = 0, No Iterations 0
diagonal:  Solving for rhoY_Y_O2, Initial residual = 0, Final residual = 0, No Iterations 0
diagonal:  Solving for rhoUx, Initial residual = 0, Final residual = 0, No Iterations 0
smoothSolver:  Solving for Ux, Initial residual = 5.5699e-09, Final residual = 2.21165e-17, No Iterations 2
diagonal:  Solving for rhoE, Initial residual = 0, Final residual = 0, No Iterations 0
smoothSolver:  Solving for h, Initial residual = 2.92531e-08, Final residual = 2.33807e-17, No Iterations 2
Sanity check: max(|rhoCont - rhoFromSpecies|) = 6.66134e-16

ExecutionTime = 5.11 s  ClockTime = 5 s

Mean and max Courant Numbers = 0.136014 0.201002
deltaT = 6.28837e-05
Time = 0.00548277

diagonal:  Solving for rhoCont, Initial residual = 0, Final residual = 0, No Iterations 0
diagonal:  Solving for rhoY_Y_N2, Initial residual = 0, Final residual = 0, No Iterations 0
diagonal:  Solving for rhoY_Y_O2, Initial residual = 0, Final residual = 0, No Iterations 0
diagonal:  Solving for rhoUx, Initial residual = 0, Final residual = 0, No Iterations 0
smoothSolver:  Solving for Ux, Initial residual = 5.5951e-09, Final residual = 2.31413e-17, No Iterations 2
diagonal:  Solving for rhoE, Initial residual = 0, Final residual = 0, No Iterations 0
smoothSolver:  Solving for h, Initial residual = 2.87553e-08, Final residual = 2.02105e-17, No Iterations 2
Sanity check: max(|rhoCont - rhoFromSpecies|) = 6.10623e-16

ExecutionTime = 5.17 s  ClockTime = 5 s

Mean and max Courant Numbers = 0.135764 0.201212
deltaT = 6.25051e-05
Time = 0.00554528

diagonal:  Solving for rhoCont, Initial residual = 0, Final residual = 0, No Iterations 0
diagonal:  Solving for rhoY_Y_N2, Initial residual = 0, Final residual = 0, No Iterations 0
diagonal:  Solving for rhoY_Y_O2, Initial residual = 0, Final residual = 0, No Iterations 0
diagonal:  Solving for rhoUx, Initial residual = 0, Final residual = 0, No Iterations 0
smoothSolver:  Solving for Ux, Initial residual = 6.15224e-09, Final residual = 2.76585e-17, No Iterations 2
diagonal:  Solving for rhoE, Initial residual = 0, Final residual = 0, No Iterations 0
smoothSolver:  Solving for h, Initial residual = 2.98615e-08, Final residual = 2.12301e-17, No Iterations 2
Sanity check: max(|rhoCont - rhoFromSpecies|) = 6.66134e-16

ExecutionTime = 5.23 s  ClockTime = 5 s

Mean and max Courant Numbers = 0.135334 0.19798
deltaT = 6.31427e-05
Time = 0.00560842

diagonal:  Solving for rhoCont, Initial residual = 0, Final residual = 0, No Iterations 0
diagonal:  Solving for rhoY_Y_N2, Initial residual = 0, Final residual = 0, No Iterations 0
diagonal:  Solving for rhoY_Y_O2, Initial residual = 0, Final residual = 0, No Iterations 0
diagonal:  Solving for rhoUx, Initial residual = 0, Final residual = 0, No Iterations 0
smoothSolver:  Solving for Ux, Initial residual = 5.75518e-09, Final residual = 2.2907e-17, No Iterations 2
diagonal:  Solving for rhoE, Initial residual = 0, Final residual = 0, No Iterations 0
smoothSolver:  Solving for h, Initial residual = 3.03611e-08, Final residual = 2.06928e-17, No Iterations 2
Sanity check: max(|rhoCont - rhoFromSpecies|) = 6.66134e-16

ExecutionTime = 5.28 s  ClockTime = 5 s

Mean and max Courant Numbers = 0.137039 0.199468
deltaT = 6.3311e-05
Time = 0.00567173

diagonal:  Solving for rhoCont, Initial residual = 0, Final residual = 0, No Iterations 0
diagonal:  Solving for rhoY_Y_N2, Initial residual = 0, Final residual = 0, No Iterations 0
diagonal:  Solving for rhoY_Y_O2, Initial residual = 0, Final residual = 0, No Iterations 0
diagonal:  Solving for rhoUx, Initial residual = 0, Final residual = 0, No Iterations 0
smoothSolver:  Solving for Ux, Initial residual = 5.3361e-09, Final residual = 2.70357e-17, No Iterations 2
diagonal:  Solving for rhoE, Initial residual = 0, Final residual = 0, No Iterations 0
smoothSolver:  Solving for h, Initial residual = 2.99327e-08, Final residual = 2.25052e-17, No Iterations 2
Sanity check: max(|rhoCont - rhoFromSpecies|) = 7.21645e-16

ExecutionTime = 5.34 s  ClockTime = 5 s

Mean and max Courant Numbers = 0.137787 0.201906
deltaT = 6.27135e-05
Time = 0.00573444

diagonal:  Solving for rhoCont, Initial residual = 0, Final residual = 0, No Iterations 0
diagonal:  Solving for rhoY_Y_N2, Initial residual = 0, Final residual = 0, No Iterations 0
diagonal:  Solving for rhoY_Y_O2, Initial residual = 0, Final residual = 0, No Iterations 0
diagonal:  Solving for rhoUx, Initial residual = 0, Final residual = 0, No Iterations 0
smoothSolver:  Solving for Ux, Initial residual = 6.04364e-09, Final residual = 2.61317e-17, No Iterations 2
diagonal:  Solving for rhoE, Initial residual = 0, Final residual = 0, No Iterations 0
smoothSolver:  Solving for h, Initial residual = 3.04478e-08, Final residual = 2.59118e-17, No Iterations 2
Sanity check: max(|rhoCont - rhoFromSpecies|) = 7.21645e-16

ExecutionTime = 5.4 s  ClockTime = 5 s

Mean and max Courant Numbers = 0.136911 0.199262
deltaT = 6.29456e-05
Time = 0.00579739

diagonal:  Solving for rhoCont, Initial residual = 0, Final residual = 0, No Iterations 0
diagonal:  Solving for rhoY_Y_N2, Initial residual = 0, Final residual = 0, No Iterations 0
[...]
smoothSolver:  Solving for h, Initial residual = 2.27658e-08, Final residual = 3.59107e-17, No Iterations 2
Sanity check: max(|rhoCont - rhoFromSpecies|) = 7.77156e-15

ExecutionTime = 46.86 s  ClockTime = 46 s

Mean and max Courant Numbers = 0.149666 0.200125
deltaT = 6.85e-05
Time = 0.054477

diagonal:  Solving for rhoCont, Initial residual = 0, Final residual = 0, No Iterations 0
diagonal:  Solving for rhoY_Y_N2, Initial residual = 0, Final residual = 0, No Iterations 0
diagonal:  Solving for rhoY_Y_O2, Initial residual = 0, Final residual = 0, No Iterations 0
diagonal:  Solving for rhoUx, Initial residual = 0, Final residual = 0, No Iterations 0
smoothSolver:  Solving for Ux, Initial residual = 8.5018e-09, Final residual = 3.1354e-17, No Iterations 2
diagonal:  Solving for rhoE, Initial residual = 0, Final residual = 0, No Iterations 0
smoothSolver:  Solving for h, Initial residual = 2.27736e-08, Final residual = 3.35963e-17, No Iterations 2
Sanity check: max(|rhoCont - rhoFromSpecies|) = 7.88258e-15

ExecutionTime = 46.92 s  ClockTime = 47 s

Mean and max Courant Numbers = 0.149424 0.200055
deltaT = 6.84811e-05
Time = 0.0545455

diagonal:  Solving for rhoCont, Initial residual = 0, Final residual = 0, No Iterations 0
diagonal:  Solving for rhoY_Y_N2, Initial residual = 0, Final residual = 0, No Iterations 0
diagonal:  Solving for rhoY_Y_O2, Initial residual = 0, Final residual = 0, No Iterations 0
diagonal:  Solving for rhoUx, Initial residual = 0, Final residual = 0, No Iterations 0
smoothSolver:  Solving for Ux, Initial residual = 8.46112e-09, Final residual = 3.75214e-17, No Iterations 2
diagonal:  Solving for rhoE, Initial residual = 0, Final residual = 0, No Iterations 0
smoothSolver:  Solving for h, Initial residual = 2.27807e-08, Final residual = 3.29616e-17, No Iterations 2
Sanity check: max(|rhoCont - rhoFromSpecies|) = 7.88258e-15

ExecutionTime = 46.97 s  ClockTime = 47 s

Mean and max Courant Numbers = 0.149258 0.200608
deltaT = 6.82737e-05
Time = 0.0546138

diagonal:  Solving for rhoCont, Initial residual = 0, Final residual = 0, No Iterations 0
diagonal:  Solving for rhoY_Y_N2, Initial residual = 0, Final residual = 0, No Iterations 0
diagonal:  Solving for rhoY_Y_O2, Initial residual = 0, Final residual = 0, No Iterations 0
diagonal:  Solving for rhoUx, Initial residual = 0, Final residual = 0, No Iterations 0
smoothSolver:  Solving for Ux, Initial residual = 9.26877e-09, Final residual = 3.4921e-17, No Iterations 2
diagonal:  Solving for rhoE, Initial residual = 0, Final residual = 0, No Iterations 0
smoothSolver:  Solving for h, Initial residual = 2.25792e-08, Final residual = 3.85646e-17, No Iterations 2
Sanity check: max(|rhoCont - rhoFromSpecies|) = 7.99361e-15

ExecutionTime = 47.03 s  ClockTime = 47 s

Mean and max Courant Numbers = 0.148704 0.200014
deltaT = 6.82689e-05
Time = 0.054682

diagonal:  Solving for rhoCont, Initial residual = 0, Final residual = 0, No Iterations 0
diagonal:  Solving for rhoY_Y_N2, Initial residual = 0, Final residual = 0, No Iterations 0
diagonal:  Solving for rhoY_Y_O2, Initial residual = 0, Final residual = 0, No Iterations 0
diagonal:  Solving for rhoUx, Initial residual = 0, Final residual = 0, No Iterations 0
smoothSolver:  Solving for Ux, Initial residual = 9.56764e-09, Final residual = 3.40694e-17, No Iterations 2
diagonal:  Solving for rhoE, Initial residual = 0, Final residual = 0, No Iterations 0
smoothSolver:  Solving for h, Initial residual = 2.23126e-08, Final residual = 3.99851e-17, No Iterations 2
Sanity check: max(|rhoCont - rhoFromSpecies|) = 7.99361e-15

ExecutionTime = 47.08 s  ClockTime = 47 s

Mean and max Courant Numbers = 0.148525 0.200271
deltaT = 6.81767e-05
Time = 0.0547502

diagonal:  Solving for rhoCont, Initial residual = 0, Final residual = 0, No Iterations 0
diagonal:  Solving for rhoY_Y_N2, Initial residual = 0, Final residual = 0, No Iterations 0
diagonal:  Solving for rhoY_Y_O2, Initial residual = 0, Final residual = 0, No Iterations 0
diagonal:  Solving for rhoUx, Initial residual = 0, Final residual = 0, No Iterations 0
smoothSolver:  Solving for Ux, Initial residual = 9.79674e-09, Final residual = 3.4897e-17, No Iterations 2
diagonal:  Solving for rhoE, Initial residual = 0, Final residual = 0, No Iterations 0
smoothSolver:  Solving for h, Initial residual = 2.23293e-08, Final residual = 3.15813e-17, No Iterations 2
Sanity check: max(|rhoCont - rhoFromSpecies|) = 8.10463e-15

ExecutionTime = 47.14 s  ClockTime = 47 s

Mean and max Courant Numbers = 0.148133 0.200343
deltaT = 6.80601e-05
Time = 0.0548183

diagonal:  Solving for rhoCont, Initial residual = 0, Final residual = 0, No Iterations 0
diagonal:  Solving for rhoY_Y_N2, Initial residual = 0, Final residual = 0, No Iterations 0
diagonal:  Solving for rhoY_Y_O2, Initial residual = 0, Final residual = 0, No Iterations 0
diagonal:  Solving for rhoUx, Initial residual = 0, Final residual = 0, No Iterations 0
smoothSolver:  Solving for Ux, Initial residual = 9.76588e-09, Final residual = 3.52008e-17, No Iterations 2
diagonal:  Solving for rhoE, Initial residual = 0, Final residual = 0, No Iterations 0
smoothSolver:  Solving for h, Initial residual = 2.206e-08, Final residual = 3.39733e-17, No Iterations 2
Sanity check: max(|rhoCont - rhoFromSpecies|) = 8.21565e-15

ExecutionTime = 47.2 s  ClockTime = 47 s

Mean and max Courant Numbers = 0.147675 0.2
deltaT = 6.80601e-05
Time = 0.0548863

diagonal:  Solving for rhoCont, Initial residual = 0, Final residual = 0, No Iterations 0
diagonal:  Solving for rhoY_Y_N2, Initial residual = 0, Final residual = 0, No Iterations 0
diagonal:  Solving for rhoY_Y_O2, Initial residual = 0, Final residual = 0, No Iterations 0
diagonal:  Solving for rhoUx, Initial residual = 0, Final residual = 0, No Iterations 0
smoothSolver:  Solving for Ux, Initial residual = 9.00424e-09, Final residual = 3.93101e-17, No Iterations 2
diagonal:  Solving for rhoE, Initial residual = 0, Final residual = 0, No Iterations 0
smoothSolver:  Solving for h, Initial residual = 2.16106e-08, Final residual = 3.74272e-17, No Iterations 2
Sanity check: max(|rhoCont - rhoFromSpecies|) = 8.21565e-15

ExecutionTime = 47.25 s  ClockTime = 47 s

Mean and max Courant Numbers = 0.147425 0.200443
deltaT = 6.79097e-05
Time = 0.0549542

diagonal:  Solving for rhoCont, Initial residual = 0, Final residual = 0, No Iterations 0
diagonal:  Solving for rhoY_Y_N2, Initial residual = 0, Final residual = 0, No Iterations 0
diagonal:  Solving for rhoY_Y_O2, Initial residual = 0, Final residual = 0, No Iterations 0
diagonal:  Solving for rhoUx, Initial residual = 0, Final residual = 0, No Iterations 0
smoothSolver:  Solving for Ux, Initial residual = 8.82245e-09, Final residual = 3.02489e-17, No Iterations 2
diagonal:  Solving for rhoE, Initial residual = 0, Final residual = 0, No Iterations 0
smoothSolver:  Solving for h, Initial residual = 2.10388e-08, Final residual = 3.51091e-17, No Iterations 2
Sanity check: max(|rhoCont - rhoFromSpecies|) = 8.21565e-15

ExecutionTime = 47.31 s  ClockTime = 47 s

Mean and max Courant Numbers = 0.146849 0.200156
deltaT = 6.78569e-05
Time = 0.0550221

diagonal:  Solving for rhoCont, Initial residual = 0, Final residual = 0, No Iterations 0
diagonal:  Solving for rhoY_Y_N2, Initial residual = 0, Final residual = 0, No Iterations 0
diagonal:  Solving for rhoY_Y_O2, Initial residual = 0, Final residual = 0, No Iterations 0
diagonal:  Solving for rhoUx, Initial residual = 0, Final residual = 0, No Iterations 0
smoothSolver:  Solving for Ux, Initial residual = 9.4424e-09, Final residual = 3.63918e-17, No Iterations 2
diagonal:  Solving for rhoE, Initial residual = 0, Final residual = 0, No Iterations 0
smoothSolver:  Solving for h, Initial residual = 2.03007e-08, Final residual = 3.31918e-17, No Iterations 2
Sanity check: max(|rhoCont - rhoFromSpecies|) = 8.21565e-15

ExecutionTime = 47.36 s  ClockTime = 47 s

Mean and max Courant Numbers = 0.146518 0.199955
deltaT = 6.78723e-05
Time = 0.05509

diagonal:  Solving for rhoCont, Initial residual = 0, Final residual = 0, No Iterations 0
diagonal:  Solving for rhoY_Y_N2, Initial residual = 0, Final residual = 0, No Iterations 0
diagonal:  Solving for rhoY_Y_O2, Initial residual = 0, Final residual = 0, No Iterations 0
diagonal:  Solving for rhoUx, Initial residual = 0, Final residual = 0, No Iterations 0
smoothSolver:  Solving for Ux, Initial residual = 9.65021e-09, Final residual = 4.20336e-17, No Iterations 2
diagonal:  Solving for rhoE, Initial residual = 0, Final residual = 0, No Iterations 0
smoothSolver:  Solving for h, Initial residual = 2.08991e-08, Final residual = 3.27018e-17, No Iterations 2
Sanity check: max(|rhoCont - rhoFromSpecies|) = 8.10463e-15

ExecutionTime = 47.42 s  ClockTime = 47 s

Mean and max Courant Numbers = 0.146404 0.200077
deltaT = 6.78461e-05
Time = 0.0551578

diagonal:  Solving for rhoCont, Initial residual = 0, Final residual = 0, No Iterations 0
diagonal:  Solving for rhoY_Y_N2, Initial residual = 0, Final residual = 0, No Iterations 0
diagonal:  Solving for rhoY_Y_O2, Initial residual = 0, Final residual = 0, No Iterations 0
diagonal:  Solving for rhoUx, Initial residual = 0, Final residual = 0, No Iterations 0
smoothSolver:  Solving for Ux, Initial residual = 9.98949e-09, Final residual = 3.81383e-17, No Iterations 2
diagonal:  Solving for rhoE, Initial residual = 0, Final residual = 0, No Iterations 0
smoothSolver:  Solving for h, Initial residual = 2.20887e-08, Final residual = 3.68615e-17, No Iterations 2
Sanity check: max(|rhoCont - rhoFromSpecies|) = 8.32667e-15

ExecutionTime = 47.48 s  ClockTime = 47 s

Mean and max Courant Numbers = 0.146197 0.201133
deltaT = 6.74638e-05
Time = 0.0552253

diagonal:  Solving for rhoCont, Initial residual = 0, Final residual = 0, No Iterations 0
diagonal:  Solving for rhoY_Y_N2, Initial residual = 0, Final residual = 0, No Iterations 0
diagonal:  Solving for rhoY_Y_O2, Initial residual = 0, Final residual = 0, No Iterations 0
diagonal:  Solving for rhoUx, Initial residual = 0, Final residual = 0, No Iterations 0
smoothSolver:  Solving for Ux, Initial residual = 9.84783e-09, Final residual = 4.30959e-17, No Iterations 2
diagonal:  Solving for rhoE, Initial residual = 0, Final residual = 0, No Iterations 0
smoothSolver:  Solving for h, Initial residual = 2.30314e-08, Final residual = 2.83368e-17, No Iterations 2
Sanity check: max(|rhoCont - rhoFromSpecies|) = 8.32667e-15

ExecutionTime = 47.54 s  ClockTime = 47 s

Mean and max Courant Numbers = 0.145259 0.20122
deltaT = 6.70547e-05
Time = 0.0552923

diagonal:  Solving for rhoCont, Initial residual = 0, Final residual = 0, No Iterations 0
diagonal:  Solving for rhoY_Y_N2, Initial residual = 0, Final residual = 0, No Iterations 0
diagonal:  Solving for rhoY_Y_O2, Initial residual = 0, Final residual = 0, No Iterations 0
diagonal:  Solving for rhoUx, Initial residual = 0, Final residual = 0, No Iterations 0
smoothSolver:  Solving for Ux, Initial residual = 9.33897e-09, Final residual = 3.9745e-17, No Iterations 2
diagonal:  Solving for rhoE, Initial residual = 0, Final residual = 0, No Iterations 0
smoothSolver:  Solving for h, Initial residual = 2.36374e-08, Final residual = 3.05188e-17, No Iterations 2
Sanity check: max(|rhoCont - rhoFromSpecies|) = 8.32667e-15

ExecutionTime = 47.59 s  ClockTime = 47 s

Mean and max Courant Numbers = 0.144248 0.201252
deltaT = 6.66374e-05
Time = 0.055359

diagonal:  Solving for rhoCont, Initial residual = 0, Final residual = 0, No Iterations 0
diagonal:  Solving for rhoY_Y_N2, Initial residual = 0, Final residual = 0, No Iterations 0
diagonal:  Solving for rhoY_Y_O2, Initial residual = 0, Final residual = 0, No Iterations 0
diagonal:  Solving for rhoUx, Initial residual = 0, Final residual = 0, No Iterations 0
smoothSolver:  Solving for Ux, Initial residual = 9.02763e-09, Final residual = 3.96274e-17, No Iterations 2
diagonal:  Solving for rhoE, Initial residual = 0, Final residual = 0, No Iterations 0
smoothSolver:  Solving for h, Initial residual = 2.39927e-08, Final residual = 3.50751e-17, No Iterations 2
Sanity check: max(|rhoCont - rhoFromSpecies|) = 8.43769e-15

ExecutionTime = 47.65 s  ClockTime = 47 s

Mean and max Courant Numbers = 0.143222 0.201293
deltaT = 6.62093e-05
Time = 0.0554252

diagonal:  Solving for rhoCont, Initial residual = 0, Final residual = 0, No Iterations 0
diagonal:  Solving for rhoY_Y_N2, Initial residual = 0, Final residual = 0, No Iterations 0
diagonal:  Solving for rhoY_Y_O2, Initial residual = 0, Final residual = 0, No Iterations 0
diagonal:  Solving for rhoUx, Initial residual = 0, Final residual = 0, No Iterations 0
smoothSolver:  Solving for Ux, Initial residual = 8.56297e-09, Final residual = 4.83596e-17, No Iterations 2
diagonal:  Solving for rhoE, Initial residual = 0, Final residual = 0, No Iterations 0
smoothSolver:  Solving for h, Initial residual = 2.42885e-08, Final residual = 2.84415e-17, No Iterations 2
Sanity check: max(|rhoCont - rhoFromSpecies|) = 8.43769e-15

ExecutionTime = 47.7 s  ClockTime = 47 s

Mean and max Courant Numbers = 0.142145 0.200485
deltaT = 6.60492e-05
Time = 0.0554912

diagonal:  Solving for rhoCont, Initial residual = 0, Final residual = 0, No Iterations 0
diagonal:  Solving for rhoY_Y_N2, Initial residual = 0, Final residual = 0, No Iterations 0
diagonal:  Solving for rhoY_Y_O2, Initial residual = 0, Final residual = 0, No Iterations 0
diagonal:  Solving for rhoUx, Initial residual = 0, Final residual = 0, No Iterations 0
smoothSolver:  Solving for Ux, Initial residual = 8.59975e-09, Final residual = 4.14073e-17, No Iterations 2
diagonal:  Solving for rhoE, Initial residual = 0, Final residual = 0, No Iterations 0
smoothSolver:  Solving for h, Initial residual = 2.4461e-08, Final residual = 3.18358e-17, No Iterations 2
Sanity check: max(|rhoCont - rhoFromSpecies|) = 8.32667e-15

ExecutionTime = 47.75 s  ClockTime = 47 s

Mean and max Courant Numbers = 0.141662 0.199663
deltaT = 6.61607e-05
Time = 0.0555574

diagonal:  Solving for rhoCont, Initial residual = 0, Final residual = 0, No Iterations 0
diagonal:  Solving for rhoY_Y_N2, Initial residual = 0, Final residual = 0, No Iterations 0
diagonal:  Solving for rhoY_Y_O2, Initial residual = 0, Final residual = 0, No Iterations 0
diagonal:  Solving for rhoUx, Initial residual = 0, Final residual = 0, No Iterations 0
smoothSolver:  Solving for Ux, Initial residual = 9.54615e-09, Final residual = 3.35051e-17, No Iterations 2
diagonal:  Solving for rhoE, Initial residual = 0, Final residual = 0, No Iterations 0
smoothSolver:  Solving for h, Initial residual = 2.44637e-08, Final residual = 3.24253e-17, No Iterations 2
Sanity check: max(|rhoCont - rhoFromSpecies|) = 8.43769e-15

ExecutionTime = 47.82 s  ClockTime = 47 s

Mean and max Courant Numbers = 0.141744 0.198599
deltaT = 6.66273e-05
Time = 0.055624

diagonal:  Solving for rhoCont, Initial residual = 0, Final residual = 0, No Iterations 0
diagonal:  Solving for rhoY_Y_N2, Initial residual = 0, Final residual = 0, No Iterations 0
diagonal:  Solving for rhoY_Y_O2, Initial residual = 0, Final residual = 0, No Iterations 0
diagonal:  Solving for rhoUx, Initial residual = 0, Final residual = 0, No Iterations 0
smoothSolver:  Solving for Ux, Initial residual = 1.02135e-08, Final residual = 3.98839e-17, No Iterations 2
diagonal:  Solving for rhoE, Initial residual = 0, Final residual = 0, No Iterations 0
smoothSolver:  Solving for h, Initial residual = 2.44917e-08, Final residual = 3.47415e-17, No Iterations 2
Sanity check: max(|rhoCont - rhoFromSpecies|) = 8.43769e-15

ExecutionTime = 47.88 s  ClockTime = 48 s

Mean and max Courant Numbers = 0.142567 0.197334
deltaT = 6.75274e-05
Time = 0.0556916

diagonal:  Solving for rhoCont, Initial residual = 0, Final residual = 0, No Iterations 0
diagonal:  Solving for rhoY_Y_N2, Initial residual = 0, Final residual = 0, No Iterations 0
diagonal:  Solving for rhoY_Y_O2, Initial residual = 0, Final residual = 0, No Iterations 0
diagonal:  Solving for rhoUx, Initial residual = 0, Final residual = 0, No Iterations 0
smoothSolver:  Solving for Ux, Initial residual = 1.08107e-08, Final residual = 4.5081e-17, No Iterations 2
diagonal:  Solving for rhoE, Initial residual = 0, Final residual = 0, No Iterations 0
smoothSolver:  Solving for h, Initial residual = 2.50371e-08, Final residual = 2.94439e-17, No Iterations 2
Sanity check: max(|rhoCont - rhoFromSpecies|) = 8.43769e-15

ExecutionTime = 47.94 s  ClockTime = 48 s

Mean and max Courant Numbers = 0.144287 0.195762
deltaT = 6.89891e-05
Time = 0.0557605

diagonal:  Solving for rhoCont, Initial residual = 0, Final residual = 0, No Iterations 0
diagonal:  Solving for rhoY_Y_N2, Initial residual = 0, Final residual = 0, No Iterations 0
diagonal:  Solving for rhoY_Y_O2, Initial residual = 0, Final residual = 0, No Iterations 0
diagonal:  Solving for rhoUx, Initial residual = 0, Final residual = 0, No Iterations 0
smoothSolver:  Solving for Ux, Initial residual = 1.12756e-08, Final residual = 3.82087e-17, No Iterations 2
diagonal:  Solving for rhoE, Initial residual = 0, Final residual = 0, No Iterations 0
smoothSolver:  Solving for h, Initial residual = 2.5348e-08, Final residual = 3.34365e-17, No Iterations 2
Sanity check: max(|rhoCont - rhoFromSpecies|) = 8.43769e-15

ExecutionTime = 48 s  ClockTime = 48 s

Mean and max Courant Numbers = 0.147197 0.193687
deltaT = 7.12377e-05
Time = 0.0558318

diagonal:  Solving for rhoCont, Initial residual = 0, Final residual = 0, No Iterations 0
diagonal:  Solving for rhoY_Y_N2, Initial residual = 0, Final residual = 0, No Iterations 0
diagonal:  Solving for rhoY_Y_O2, Initial residual = 0, Final residual = 0, No Iterations 0
diagonal:  Solving for rhoUx, Initial residual = 0, Final residual = 0, No Iterations 0
smoothSolver:  Solving for Ux, Initial residual = 1.09856e-08, Final residual = 3.71023e-17, No Iterations 2
diagonal:  Solving for rhoE, Initial residual = 0, Final residual = 0, No Iterations 0
smoothSolver:  Solving for h, Initial residual = 2.54455e-08, Final residual = 3.11228e-17, No Iterations 2
Sanity check: max(|rhoCont - rhoFromSpecies|) = 8.54872e-15

ExecutionTime = 48.06 s  ClockTime = 48 s

Mean and max Courant Numbers = 0.151747 0.193834
deltaT = 7.35037e-05
Time = 0.0559053

diagonal:  Solving for rhoCont, Initial residual = 0, Final residual = 0, No Iterations 0
diagonal:  Solving for rhoY_Y_N2, Initial residual = 0, Final residual = 0, No Iterations 0
diagonal:  Solving for rhoY_Y_O2, Initial residual = 0, Final residual = 0, No Iterations 0
diagonal:  Solving for rhoUx, Initial residual = 0, Final residual = 0, No Iterations 0
smoothSolver:  Solving for Ux, Initial residual = 9.99214e-09, Final residual = 3.65806e-17, No Iterations 2
diagonal:  Solving for rhoE, Initial residual = 0, Final residual = 0, No Iterations 0
smoothSolver:  Solving for h, Initial residual = 2.53792e-08, Final residual = 3.07339e-17, No Iterations 2
Sanity check: max(|rhoCont - rhoFromSpecies|) = 8.54872e-15

ExecutionTime = 48.12 s  ClockTime = 48 s

Mean and max Courant Numbers = 0.156307 0.197738
deltaT = 7.43444e-05
Time = 0.0559796

diagonal:  Solving for rhoCont, Initial residual = 0, Final residual = 0, No Iterations 0
diagonal:  Solving for rhoY_Y_N2, Initial residual = 0, Final residual = 0, No Iterations 0
diagonal:  Solving for rhoY_Y_O2, Initial residual = 0, Final residual = 0, No Iterations 0
diagonal:  Solving for rhoUx, Initial residual = 0, Final residual = 0, No Iterations 0
smoothSolver:  Solving for Ux, Initial residual = 9.49319e-09, Final residual = 3.84135e-17, No Iterations 2
diagonal:  Solving for rhoE, Initial residual = 0, Final residual = 0, No Iterations 0
smoothSolver:  Solving for h, Initial residual = 2.51404e-08, Final residual = 3.92996e-17, No Iterations 2
Sanity check: max(|rhoCont - rhoFromSpecies|) = 8.54872e-15

ExecutionTime = 48.18 s  ClockTime = 48 s

End

