/*---------------------------------------------------------------------------*\
| =========                 |                                                 |
| \\      /  F ield         | OpenFOAM: The Open Source CFD Toolbox           |
|  \\    /   O peration     | Version:  2412                                  |
|   \\  /    A nd           | Website:  www.openfoam.com                      |
|    \\/     M anipulation  |                                                 |
\*---------------------------------------------------------------------------*/
Build  : 0bb0c1db74-20250528 OPENFOAM=2412 version=v2412
Arch   : "LSB;label=32;scalar=64"
Exec   : nexaFoam
Date   : Feb 04 2026
Time   : 18:59:25
Host   : FurkanLinux
PID    : 764565
I/O    : uncollated
Case   : /home/t12022124597/Desktop/codeProjects/masterThesisCode/nexaFoam/tutorials/compressible/nexaFoam/sodShockTube_twoComp
nProcs : 1
trapFpe: Floating point exception trapping enabled (FOAM_SIGFPE).
fileModificationChecking : Monitoring run-time modified files using timeStampMaster (fileModificationSkew 5, maxFileModificationPolls 20)
allowSystemOperations : Allowing user-supplied system call operations

// * * * * * * * * * * * * * * * * * * * * * * * * * * * * * * * * * * * * * //
Create time

Create mesh for time = 0

Multiple species are found in mixture.

Selecting thermodynamics package 
{
    type            heNe2TReactionThermo;
    mixture         multiComponent2TMixture;
    transport       blottnerEucken2T;
    thermo          janaf2T;
    equationOfState perfect2TGas;
    specie          specie2T;
    energy          sensibleCalculation2T;
}

Reading field U

Creating turbulence model

Selecting turbulence model type laminar
Selecting laminar stress model Stokes
fluxScheme: Kurganov

Starting time loop

Sampled set:
    xLine -> csv

Mean and max Courant Numbers = 0.162077 0.176504
deltaT = 0.000111331
Time = 0.000111331

diagonal:  Solving for rhoCont, Initial residual = 0, Final residual = 0, No Iterations 0
diagonal:  Solving for rhoY_Y_N2, Initial residual = 0, Final residual = 0, No Iterations 0
diagonal:  Solving for rhoY_Y_O2, Initial residual = 0, Final residual = 0, No Iterations 0
Sanity check: max(|rhoCont - rhoFromSpecies|) = 0

diagonal:  Solving for rhoUx, Initial residual = 0, Final residual = 0, No Iterations 0
smoothSolver:  Solving for Ux, Initial residual = 2.02317e-07, Final residual = 7.18607e-18, No Iterations 2
diagonal:  Solving for rhoE, Initial residual = 0, Final residual = 0, No Iterations 0
TTR min/max: 240 / 303.101

min eInt cell=51 eInt=-53186.8 C=(0.15 0 0)
smoothSolver:  Solving for h, Initial residual = 1.23756e-08, Final residual = 8.82979e-18, No Iterations 2
ExecutionTime = 0.09 s  ClockTime = 0 s

Mean and max Courant Numbers = 0.182581 0.272258
deltaT = 8.17835e-05
Time = 0.000193115

diagonal:  Solving for rhoCont, Initial residual = 0, Final residual = 0, No Iterations 0
diagonal:  Solving for rhoY_Y_N2, Initial residual = 0, Final residual = 0, No Iterations 0
diagonal:  Solving for rhoY_Y_O2, Initial residual = 0, Final residual = 0, No Iterations 0
Sanity check: max(|rhoCont - rhoFromSpecies|) = 2.22045e-16

diagonal:  Solving for rhoUx, Initial residual = 0, Final residual = 0, No Iterations 0
smoothSolver:  Solving for Ux, Initial residual = 1.09991e-07, Final residual = 7.73196e-18, No Iterations 2
diagonal:  Solving for rhoE, Initial residual = 0, Final residual = 0, No Iterations 0
TTR min/max: 240 / 301.373

min eInt cell=62 eInt=-53186.8 C=(1.25 0 0)
smoothSolver:  Solving for h, Initial residual = 1.04314e-08, Final residual = 1.79736e-17, No Iterations 2
ExecutionTime = 0.13 s  ClockTime = 0 s

Mean and max Courant Numbers = 0.134986 0.236879
deltaT = 6.90508e-05
Time = 0.000262165

diagonal:  Solving for rhoCont, Initial residual = 0, Final residual = 0, No Iterations 0
diagonal:  Solving for rhoY_Y_N2, Initial residual = 0, Final residual = 0, No Iterations 0
diagonal:  Solving for rhoY_Y_O2, Initial residual = 0, Final residual = 0, No Iterations 0
Sanity check: max(|rhoCont - rhoFromSpecies|) = 3.33067e-16

diagonal:  Solving for rhoUx, Initial residual = 0, Final residual = 0, No Iterations 0
smoothSolver:  Solving for Ux, Initial residual = 6.99414e-08, Final residual = 1.11897e-17, No Iterations 2
diagonal:  Solving for rhoE, Initial residual = 0, Final residual = 0, No Iterations 0
TTR min/max: 240 / 300

min eInt cell=62 eInt=-53186.8 C=(1.25 0 0)
smoothSolver:  Solving for h, Initial residual = 1.33205e-08, Final residual = 1.53372e-17, No Iterations 2
ExecutionTime = 0.18 s  ClockTime = 0 s

Mean and max Courant Numbers = 0.114365 0.205514
deltaT = 6.71982e-05
Time = 0.000329364

diagonal:  Solving for rhoCont, Initial residual = 0, Final residual = 0, No Iterations 0
diagonal:  Solving for rhoY_Y_N2, Initial residual = 0, Final residual = 0, No Iterations 0
diagonal:  Solving for rhoY_Y_O2, Initial residual = 0, Final residual = 0, No Iterations 0
Sanity check: max(|rhoCont - rhoFromSpecies|) = 3.33067e-16

diagonal:  Solving for rhoUx, Initial residual = 0, Final residual = 0, No Iterations 0
smoothSolver:  Solving for Ux, Initial residual = 6.97986e-08, Final residual = 1.40013e-17, No Iterations 2
diagonal:  Solving for rhoE, Initial residual = 0, Final residual = 0, No Iterations 0
TTR min/max: 240 / 300

min eInt cell=62 eInt=-53186.8 C=(1.25 0 0)
smoothSolver:  Solving for h, Initial residual = 1.71291e-08, Final residual = 1.53836e-17, No Iterations 2
ExecutionTime = 0.22 s  ClockTime = 0 s

Mean and max Courant Numbers = 0.111744 0.19935
deltaT = 6.74174e-05
Time = 0.000396781

diagonal:  Solving for rhoCont, Initial residual = 0, Final residual = 0, No Iterations 0
diagonal:  Solving for rhoY_Y_N2, Initial residual = 0, Final residual = 0, No Iterations 0
diagonal:  Solving for rhoY_Y_O2, Initial residual = 0, Final residual = 0, No Iterations 0
Sanity check: max(|rhoCont - rhoFromSpecies|) = 3.33067e-16

diagonal:  Solving for rhoUx, Initial residual = 0, Final residual = 0, No Iterations 0
smoothSolver:  Solving for Ux, Initial residual = 6.34682e-08, Final residual = 6.86973e-18, No Iterations 2
diagonal:  Solving for rhoE, Initial residual = 0, Final residual = 0, No Iterations 0
TTR min/max: 239.486 / 300

min eInt cell=50 eInt=-57805.8 C=(0.05 0 0)
smoothSolver:  Solving for h, Initial residual = 2.0001e-08, Final residual = 1.50495e-17, No Iterations 2
ExecutionTime = 0.27 s  ClockTime = 0 s

Mean and max Courant Numbers = 0.112544 0.214766
deltaT = 6.27821e-05
Time = 0.000459563

diagonal:  Solving for rhoCont, Initial residual = 0, Final residual = 0, No Iterations 0
diagonal:  Solving for rhoY_Y_N2, Initial residual = 0, Final residual = 0, No Iterations 0
diagonal:  Solving for rhoY_Y_O2, Initial residual = 0, Final residual = 0, No Iterations 0
Sanity check: max(|rhoCont - rhoFromSpecies|) = 2.22045e-16

diagonal:  Solving for rhoUx, Initial residual = 0, Final residual = 0, No Iterations 0
smoothSolver:  Solving for Ux, Initial residual = 4.82442e-08, Final residual = 1.33284e-17, No Iterations 2
diagonal:  Solving for rhoE, Initial residual = 0, Final residual = 0, No Iterations 0
TTR min/max: 235.161 / 300

min eInt cell=50 eInt=-62587 C=(0.05 0 0)
smoothSolver:  Solving for h, Initial residual = 1.95432e-08, Final residual = 1.38891e-17, No Iterations 2
ExecutionTime = 0.31 s  ClockTime = 0 s

Mean and max Courant Numbers = 0.10512 0.205703
deltaT = 6.10416e-05
Time = 0.000520605

diagonal:  Solving for rhoCont, Initial residual = 0, Final residual = 0, No Iterations 0
diagonal:  Solving for rhoY_Y_N2, Initial residual = 0, Final residual = 0, No Iterations 0
diagonal:  Solving for rhoY_Y_O2, Initial residual = 0, Final residual = 0, No Iterations 0
Sanity check: max(|rhoCont - rhoFromSpecies|) = 3.33067e-16

diagonal:  Solving for rhoUx, Initial residual = 0, Final residual = 0, No Iterations 0
smoothSolver:  Solving for Ux, Initial residual = 3.77821e-08, Final residual = 1.5867e-17, No Iterations 2
diagonal:  Solving for rhoE, Initial residual = 0, Final residual = 0, No Iterations 0
TTR min/max: 231.421 / 300

min eInt cell=50 eInt=-66824.2 C=(0.05 0 0)
smoothSolver:  Solving for h, Initial residual = 2.16419e-08, Final residual = 1.38891e-17, No Iterations 2
ExecutionTime = 0.36 s  ClockTime = 0 s

Mean and max Courant Numbers = 0.102519 0.199829
deltaT = 6.10937e-05
Time = 0.000581698

diagonal:  Solving for rhoCont, Initial residual = 0, Final residual = 0, No Iterations 0
diagonal:  Solving for rhoY_Y_N2, Initial residual = 0, Final residual = 0, No Iterations 0
diagonal:  Solving for rhoY_Y_O2, Initial residual = 0, Final residual = 0, No Iterations 0
Sanity check: max(|rhoCont - rhoFromSpecies|) = 3.33067e-16

diagonal:  Solving for rhoUx, Initial residual = 0, Final residual = 0, No Iterations 0
smoothSolver:  Solving for Ux, Initial residual = 3.8427e-08, Final residual = 1.54969e-17, No Iterations 2
diagonal:  Solving for rhoE, Initial residual = 0, Final residual = 0, No Iterations 0
TTR min/max: 228.257 / 300

min eInt cell=50 eInt=-70513.3 C=(0.05 0 0)
smoothSolver:  Solving for h, Initial residual = 2.38257e-08, Final residual = 1.45579e-17, No Iterations 2
ExecutionTime = 0.4 s  ClockTime = 0 s

Mean and max Courant Numbers = 0.102942 0.197048
deltaT = 6.20089e-05
Time = 0.000643707

diagonal:  Solving for rhoCont, Initial residual = 0, Final residual = 0, No Iterations 0
diagonal:  Solving for rhoY_Y_N2, Initial residual = 0, Final residual = 0, No Iterations 0
diagonal:  Solving for rhoY_Y_O2, Initial residual = 0, Final residual = 0, No Iterations 0
Sanity check: max(|rhoCont - rhoFromSpecies|) = 4.44089e-16

diagonal:  Solving for rhoUx, Initial residual = 0, Final residual = 0, No Iterations 0
smoothSolver:  Solving for Ux, Initial residual = 3.56962e-08, Final residual = 1.12318e-17, No Iterations 2
diagonal:  Solving for rhoE, Initial residual = 0, Final residual = 0, No Iterations 0
TTR min/max: 225.699 / 300

min eInt cell=50 eInt=-73609.4 C=(0.05 0 0)
smoothSolver:  Solving for h, Initial residual = 2.49772e-08, Final residual = 1.4031e-17, No Iterations 2
ExecutionTime = 0.44 s  ClockTime = 0 s

Mean and max Courant Numbers = 0.104799 0.196358
deltaT = 6.3159e-05
Time = 0.000706866

diagonal:  Solving for rhoCont, Initial residual = 0, Final residual = 0, No Iterations 0
diagonal:  Solving for rhoY_Y_N2, Initial residual = 0, Final residual = 0, No Iterations 0
diagonal:  Solving for rhoY_Y_O2, Initial residual = 0, Final residual = 0, No Iterations 0
Sanity check: max(|rhoCont - rhoFromSpecies|) = 5.55112e-16

diagonal:  Solving for rhoUx, Initial residual = 0, Final residual = 0, No Iterations 0
smoothSolver:  Solving for Ux, Initial residual = 3.0057e-08, Final residual = 1.75665e-17, No Iterations 2
diagonal:  Solving for rhoE, Initial residual = 0, Final residual = 0, No Iterations 0
TTR min/max: 223.826 / 301.122

min eInt cell=50 eInt=-76010.8 C=(0.05 0 0)
smoothSolver:  Solving for h, Initial residual = 2.48627e-08, Final residual = 1.38303e-17, No Iterations 2
ExecutionTime = 0.48 s  ClockTime = 0 s

Mean and max Courant Numbers = 0.107069 0.201258
deltaT = 6.27641e-05
Time = 0.00076963

diagonal:  Solving for rhoCont, Initial residual = 0, Final residual = 0, No Iterations 0
diagonal:  Solving for rhoY_Y_N2, Initial residual = 0, Final residual = 0, No Iterations 0
diagonal:  Solving for rhoY_Y_O2, Initial residual = 0, Final residual = 0, No Iterations 0
Sanity check: max(|rhoCont - rhoFromSpecies|) = 6.66134e-16

diagonal:  Solving for rhoUx, Initial residual = 0, Final residual = 0, No Iterations 0
smoothSolver:  Solving for Ux, Initial residual = 2.70193e-08, Final residual = 1.32637e-17, No Iterations 2
diagonal:  Solving for rhoE, Initial residual = 0, Final residual = 0, No Iterations 0
TTR min/max: 222.741 / 303.122

min eInt cell=50 eInt=-77577.3 C=(0.05 0 0)
smoothSolver:  Solving for h, Initial residual = 2.53059e-08, Final residual = 1.35565e-17, No Iterations 2
ExecutionTime = 0.53 s  ClockTime = 0 s

Mean and max Courant Numbers = 0.106778 0.200681
deltaT = 6.25512e-05
Time = 0.000832182

diagonal:  Solving for rhoCont, Initial residual = 0, Final residual = 0, No Iterations 0
diagonal:  Solving for rhoY_Y_N2, Initial residual = 0, Final residual = 0, No Iterations 0
diagonal:  Solving for rhoY_Y_O2, Initial residual = 0, Final residual = 0, No Iterations 0
Sanity check: max(|rhoCont - rhoFromSpecies|) = 6.66134e-16

diagonal:  Solving for rhoUx, Initial residual = 0, Final residual = 0, No Iterations 0
smoothSolver:  Solving for Ux, Initial residual = 2.70869e-08, Final residual = 1.13315e-17, No Iterations 2
diagonal:  Solving for rhoE, Initial residual = 0, Final residual = 0, No Iterations 0
TTR min/max: 222.423 / 301.975

min eInt cell=50 eInt=-78311.9 C=(0.05 0 0)
smoothSolver:  Solving for h, Initial residual = 2.73601e-08, Final residual = 1.36599e-17, No Iterations 2
ExecutionTime = 0.58 s  ClockTime = 0 s

Mean and max Courant Numbers = 0.106803 0.198678
deltaT = 6.29675e-05
Time = 0.000895149

diagonal:  Solving for rhoCont, Initial residual = 0, Final residual = 0, No Iterations 0
diagonal:  Solving for rhoY_Y_N2, Initial residual = 0, Final residual = 0, No Iterations 0
diagonal:  Solving for rhoY_Y_O2, Initial residual = 0, Final residual = 0, No Iterations 0
Sanity check: max(|rhoCont - rhoFromSpecies|) = 7.77156e-16

diagonal:  Solving for rhoUx, Initial residual = 0, Final residual = 0, No Iterations 0
smoothSolver:  Solving for Ux, Initial residual = 2.42544e-08, Final residual = 1.59591e-17, No Iterations 2
diagonal:  Solving for rhoE, Initial residual = 0, Final residual = 0, No Iterations 0
TTR min/max: 222.814 / 301.495

min eInt cell=50 eInt=-78265.7 C=(0.05 0 0)
smoothSolver:  Solving for h, Initial residual = 2.81646e-08, Final residual = 1.44129e-17, No Iterations 2
ExecutionTime = 0.62 s  ClockTime = 0 s

Mean and max Courant Numbers = 0.107865 0.198258
deltaT = 6.35208e-05
Time = 0.00095867

diagonal:  Solving for rhoCont, Initial residual = 0, Final residual = 0, No Iterations 0
diagonal:  Solving for rhoY_Y_N2, Initial residual = 0, Final residual = 0, No Iterations 0
diagonal:  Solving for rhoY_Y_O2, Initial residual = 0, Final residual = 0, No Iterations 0
Sanity check: max(|rhoCont - rhoFromSpecies|) = 6.66134e-16

diagonal:  Solving for rhoUx, Initial residual = 0, Final residual = 0, No Iterations 0
smoothSolver:  Solving for Ux, Initial residual = 1.95888e-08, Final residual = 7.16423e-18, No Iterations 2
diagonal:  Solving for rhoE, Initial residual = 0, Final residual = 0, No Iterations 0
TTR min/max: 223.562 / 307.856

min eInt cell=50 eInt=-77515.6 C=(0.05 0 0)
smoothSolver:  Solving for h, Initial residual = 2.77663e-08, Final residual = 1.49987e-17, No Iterations 2
ExecutionTime = 0.67 s  ClockTime = 0 s

Mean and max Courant Numbers = 0.109186 0.20365
deltaT = 6.23822e-05
Time = 0.00102105

diagonal:  Solving for rhoCont, Initial residual = 0, Final residual = 0, No Iterations 0
diagonal:  Solving for rhoY_Y_N2, Initial residual = 0, Final residual = 0, No Iterations 0
diagonal:  Solving for rhoY_Y_O2, Initial residual = 0, Final residual = 0, No Iterations 0
Sanity check: max(|rhoCont - rhoFromSpecies|) = 6.66134e-16

diagonal:  Solving for rhoUx, Initial residual = 0, Final residual = 0, No Iterations 0
smoothSolver:  Solving for Ux, Initial residual = 2.099e-08, Final residual = 1.70592e-17, No Iterations 2
diagonal:  Solving for rhoE, Initial residual = 0, Final residual = 0, No Iterations 0
TTR min/max: 224.836 / 310.868

min eInt cell=50 eInt=-76192.3 C=(0.05 0 0)
smoothSolver:  Solving for h, Initial residual = 2.79406e-08, Final residual = 1.60686e-17, No Iterations 2
ExecutionTime = 0.71 s  ClockTime = 1 s

Mean and max Courant Numbers = 0.107622 0.200214
deltaT = 6.23156e-05
Time = 0.00108337

diagonal:  Solving for rhoCont, Initial residual = 0, Final residual = 0, No Iterations 0
diagonal:  Solving for rhoY_Y_N2, Initial residual = 0, Final residual = 0, No Iterations 0
diagonal:  Solving for rhoY_Y_O2, Initial residual = 0, Final residual = 0, No Iterations 0
Sanity check: max(|rhoCont - rhoFromSpecies|) = 4.44089e-16

diagonal:  Solving for rhoUx, Initial residual = 0, Final residual = 0, No Iterations 0
smoothSolver:  Solving for Ux, Initial residual = 2.06481e-08, Final residual = 1.52268e-17, No Iterations 2
diagonal:  Solving for rhoE, Initial residual = 0, Final residual = 0, No Iterations 0
TTR min/max: 226.577 / 311.027

min eInt cell=50 eInt=-74383.4 C=(0.05 0 0)
smoothSolver:  Solving for h, Initial residual = 2.80987e-08, Final residual = 1.56218e-17, No Iterations 2
ExecutionTime = 0.76 s  ClockTime = 1 s

Mean and max Courant Numbers = 0.107867 0.199251
deltaT = 6.25498e-05
Time = 0.00114592

diagonal:  Solving for rhoCont, Initial residual = 0, Final residual = 0, No Iterations 0
diagonal:  Solving for rhoY_Y_N2, Initial residual = 0, Final residual = 0, No Iterations 0
diagonal:  Solving for rhoY_Y_O2, Initial residual = 0, Final residual = 0, No Iterations 0
Sanity check: max(|rhoCont - rhoFromSpecies|) = 3.33067e-16

diagonal:  Solving for rhoUx, Initial residual = 0, Final residual = 0, No Iterations 0
smoothSolver:  Solving for Ux, Initial residual = 1.79097e-08, Final residual = 1.30755e-17, No Iterations 2
diagonal:  Solving for rhoE, Initial residual = 0, Final residual = 0, No Iterations 0
TTR min/max: 225.074 / 308.92

min eInt cell=51 eInt=-74774.3 C=(0.15 0 0)
smoothSolver:  Solving for h, Initial residual = 2.74335e-08, Final residual = 1.49349e-17, No Iterations 2
ExecutionTime = 0.81 s  ClockTime = 1 s

Mean and max Courant Numbers = 0.108618 0.20207
deltaT = 6.1909e-05
Time = 0.00120783

diagonal:  Solving for rhoCont, Initial residual = 0, Final residual = 0, No Iterations 0
diagonal:  Solving for rhoY_Y_N2, Initial residual = 0, Final residual = 0, No Iterations 0
diagonal:  Solving for rhoY_Y_O2, Initial residual = 0, Final residual = 0, No Iterations 0
Sanity check: max(|rhoCont - rhoFromSpecies|) = 3.33067e-16

diagonal:  Solving for rhoUx, Initial residual = 0, Final residual = 0, No Iterations 0
smoothSolver:  Solving for Ux, Initial residual = 1.74524e-08, Final residual = 2.0121e-17, No Iterations 2
diagonal:  Solving for rhoE, Initial residual = 0, Final residual = 0, No Iterations 0
TTR min/max: 221.49 / 313.128

min eInt cell=51 eInt=-78890.3 C=(0.15 0 0)
smoothSolver:  Solving for h, Initial residual = 2.65284e-08, Final residual = 1.52903e-17, No Iterations 2
ExecutionTime = 0.85 s  ClockTime = 1 s

Mean and max Courant Numbers = 0.10788 0.200957
deltaT = 6.16141e-05
Time = 0.00126944

diagonal:  Solving for rhoCont, Initial residual = 0, Final residual = 0, No Iterations 0
diagonal:  Solving for rhoY_Y_N2, Initial residual = 0, Final residual = 0, No Iterations 0
diagonal:  Solving for rhoY_Y_O2, Initial residual = 0, Final residual = 0, No Iterations 0
Sanity check: max(|rhoCont - rhoFromSpecies|) = 5.55112e-16

diagonal:  Solving for rhoUx, Initial residual = 0, Final residual = 0, No Iterations 0
smoothSolver:  Solving for Ux, Initial residual = 1.83126e-08, Final residual = 2.13942e-17, No Iterations 2
diagonal:  Solving for rhoE, Initial residual = 0, Final residual = 0, No Iterations 0
TTR min/max: 218.744 / 315.912

min eInt cell=51 eInt=-82124.9 C=(0.15 0 0)
smoothSolver:  Solving for h, Initial residual = 2.75234e-08, Final residual = 1.43958e-17, No Iterations 2
ExecutionTime = 0.9 s  ClockTime = 1 s

Mean and max Courant Numbers = 0.107727 0.199299
deltaT = 6.18308e-05
Time = 0.00133127

diagonal:  Solving for rhoCont, Initial residual = 0, Final residual = 0, No Iterations 0
diagonal:  Solving for rhoY_Y_N2, Initial residual = 0, Final residual = 0, No Iterations 0
diagonal:  Solving for rhoY_Y_O2, Initial residual = 0, Final residual = 0, No Iterations 0
Sanity check: max(|rhoCont - rhoFromSpecies|) = 4.44089e-16

diagonal:  Solving for rhoUx, Initial residual = 0, Final residual = 0, No Iterations 0
smoothSolver:  Solving for Ux, Initial residual = 1.66574e-08, Final residual = 2.64546e-17, No Iterations 2
diagonal:  Solving for rhoE, Initial residual = 0, Final residual = 0, No Iterations 0
TTR min/max: 217.02 / 316.282

min eInt cell=51 eInt=-84268.1 C=(0.15 0 0)
smoothSolver:  Solving for h, Initial residual = 2.74316e-08, Final residual = 1.61627e-17, No Iterations 2
ExecutionTime = 0.95 s  ClockTime = 1 s

Mean and max Courant Numbers = 0.108471 0.200049
deltaT = 6.18157e-05
Time = 0.00139309

diagonal:  Solving for rhoCont, Initial residual = 0, Final residual = 0, No Iterations 0
diagonal:  Solving for rhoY_Y_N2, Initial residual = 0, Final residual = 0, No Iterations 0
diagonal:  Solving for rhoY_Y_O2, Initial residual = 0, Final residual = 0, No Iterations 0
Sanity check: max(|rhoCont - rhoFromSpecies|) = 4.44089e-16

diagonal:  Solving for rhoUx, Initial residual = 0, Final residual = 0, No Iterations 0
smoothSolver:  Solving for Ux, Initial residual = 1.42427e-08, Final residual = 1.87468e-17, No Iterations 2
diagonal:  Solving for rhoE, Initial residual = 0, Final residual = 0, No Iterations 0
TTR min/max: 216.043 / 314.822

min eInt cell=51 eInt=-85327.8 C=(0.15 0 0)
smoothSolver:  Solving for h, Initial residual = 2.61727e-08, Final residual = 1.44031e-17, No Iterations 2
ExecutionTime = 0.99 s  ClockTime = 1 s

Mean and max Courant Numbers = 0.108821 0.202432
deltaT = 6.1073e-05
Time = 0.00145416

diagonal:  Solving for rhoCont, Initial residual = 0, Final residual = 0, No Iterations 0
diagonal:  Solving for rhoY_Y_N2, Initial residual = 0, Final residual = 0, No Iterations 0
diagonal:  Solving for rhoY_Y_O2, Initial residual = 0, Final residual = 0, No Iterations 0
Sanity check: max(|rhoCont - rhoFromSpecies|) = 5.55112e-16

diagonal:  Solving for rhoUx, Initial residual = 0, Final residual = 0, No Iterations 0
smoothSolver:  Solving for Ux, Initial residual = 1.58773e-08, Final residual = 2.11221e-17, No Iterations 2
diagonal:  Solving for rhoE, Initial residual = 0, Final residual = 0, No Iterations 0
TTR min/max: 215.962 / 317.543

min eInt cell=51 eInt=-85412.2 C=(0.15 0 0)
smoothSolver:  Solving for h, Initial residual = 2.63669e-08, Final residual = 1.48778e-17, No Iterations 2
ExecutionTime = 1.05 s  ClockTime = 1 s

Mean and max Courant Numbers = 0.107907 0.198639
deltaT = 6.14915e-05
Time = 0.00151565

diagonal:  Solving for rhoCont, Initial residual = 0, Final residual = 0, No Iterations 0
diagonal:  Solving for rhoY_Y_N2, Initial residual = 0, Final residual = 0, No Iterations 0
diagonal:  Solving for rhoY_Y_O2, Initial residual = 0, Final residual = 0, No Iterations 0
Sanity check: max(|rhoCont - rhoFromSpecies|) = 5.55112e-16

diagonal:  Solving for rhoUx, Initial residual = 0, Final residual = 0, No Iterations 0
smoothSolver:  Solving for Ux, Initial residual = 1.53672e-08, Final residual = 1.70341e-17, No Iterations 2
diagonal:  Solving for rhoE, Initial residual = 0, Final residual = 0, No Iterations 0
TTR min/max: 216.654 / 319.54

min eInt cell=51 eInt=-84693.3 C=(0.15 0 0)
smoothSolver:  Solving for h, Initial residual = 2.68501e-08, Final residual = 1.68051e-17, No Iterations 2
ExecutionTime = 1.09 s  ClockTime = 1 s

Mean and max Courant Numbers = 0.108975 0.19723
deltaT = 6.23552e-05
Time = 0.00157801

diagonal:  Solving for rhoCont, Initial residual = 0, Final residual = 0, No Iterations 0
diagonal:  Solving for rhoY_Y_N2, Initial residual = 0, Final residual = 0, No Iterations 0
diagonal:  Solving for rhoY_Y_O2, Initial residual = 0, Final residual = 0, No Iterations 0
Sanity check: max(|rhoCont - rhoFromSpecies|) = 4.44089e-16

diagonal:  Solving for rhoUx, Initial residual = 0, Final residual = 0, No Iterations 0
smoothSolver:  Solving for Ux, Initial residual = 1.29383e-08, Final residual = 1.90457e-17, No Iterations 2
diagonal:  Solving for rhoE, Initial residual = 0, Final residual = 0, No Iterations 0
TTR min/max: 217.988 / 319.859

min eInt cell=51 eInt=-83307.1 C=(0.15 0 0)
smoothSolver:  Solving for h, Initial residual = 2.63989e-08, Final residual = 1.77139e-17, No Iterations 2
ExecutionTime = 1.14 s  ClockTime = 1 s

Mean and max Courant Numbers = 0.110848 0.20338
deltaT = 6.13188e-05
Time = 0.00163933

diagonal:  Solving for rhoCont, Initial residual = 0, Final residual = 0, No Iterations 0
diagonal:  Solving for rhoY_Y_N2, Initial residual = 0, Final residual = 0, No Iterations 0
diagonal:  Solving for rhoY_Y_O2, Initial residual = 0, Final residual = 0, No Iterations 0
Sanity check: max(|rhoCont - rhoFromSpecies|) = 4.996e-16

diagonal:  Solving for rhoUx, Initial residual = 0, Final residual = 0, No Iterations 0
smoothSolver:  Solving for Ux, Initial residual = 1.38858e-08, Final residual = 1.77149e-17, No Iterations 2
diagonal:  Solving for rhoE, Initial residual = 0, Final residual = 0, No Iterations 0
TTR min/max: 219.854 / 318.656

min eInt cell=51 eInt=-81368.8 C=(0.15 0 0)
smoothSolver:  Solving for h, Initial residual = 2.63507e-08, Final residual = 1.58612e-17, No Iterations 2
ExecutionTime = 1.2 s  ClockTime = 1 s

Mean and max Courant Numbers = 0.10942 0.199988
deltaT = 6.13225e-05
Time = 0.00170065

diagonal:  Solving for rhoCont, Initial residual = 0, Final residual = 0, No Iterations 0
diagonal:  Solving for rhoY_Y_N2, Initial residual = 0, Final residual = 0, No Iterations 0
diagonal:  Solving for rhoY_Y_O2, Initial residual = 0, Final residual = 0, No Iterations 0
Sanity check: max(|rhoCont - rhoFromSpecies|) = 4.44089e-16

diagonal:  Solving for rhoUx, Initial residual = 0, Final residual = 0, No Iterations 0
smoothSolver:  Solving for Ux, Initial residual = 1.42134e-08, Final residual = 1.15737e-17, No Iterations 2
diagonal:  Solving for rhoE, Initial residual = 0, Final residual = 0, No Iterations 0
TTR min/max: 220.001 / 320.461

min eInt cell=52 eInt=-80749.7 C=(0.25 0 0)
smoothSolver:  Solving for h, Initial residual = 2.6765e-08, Final residual = 1.72897e-17, No Iterations 2
ExecutionTime = 1.24 s  ClockTime = 1 s

Mean and max Courant Numbers = 0.109787 0.1977
deltaT = 6.20359e-05
Time = 0.00176268

diagonal:  Solving for rhoCont, Initial residual = 0, Final residual = 0, No Iterations 0
diagonal:  Solving for rhoY_Y_N2, Initial residual = 0, Final residual = 0, No Iterations 0
diagonal:  Solving for rhoY_Y_O2, Initial residual = 0, Final residual = 0, No Iterations 0
Sanity check: max(|rhoCont - rhoFromSpecies|) = 4.996e-16

diagonal:  Solving for rhoUx, Initial residual = 0, Final residual = 0, No Iterations 0
smoothSolver:  Solving for Ux, Initial residual = 1.25894e-08, Final residual = 1.10003e-17, No Iterations 2
diagonal:  Solving for rhoE, Initial residual = 0, Final residual = 0, No Iterations 0
TTR min/max: 218.098 / 322.059

min eInt cell=52 eInt=-83033.3 C=(0.25 0 0)
smoothSolver:  Solving for h, Initial residual = 2.61269e-08, Final residual = 1.63523e-17, No Iterations 2
ExecutionTime = 1.29 s  ClockTime = 1 s

Mean and max Courant Numbers = 0.111408 0.201671
deltaT = 6.15218e-05
Time = 0.00182421

diagonal:  Solving for rhoCont, Initial residual = 0, Final residual = 0, No Iterations 0
diagonal:  Solving for rhoY_Y_N2, Initial residual = 0, Final residual = 0, No Iterations 0
diagonal:  Solving for rhoY_Y_O2, Initial residual = 0, Final residual = 0, No Iterations 0
Sanity check: max(|rhoCont - rhoFromSpecies|) = 4.996e-16

diagonal:  Solving for rhoUx, Initial residual = 0, Final residual = 0, No Iterations 0
smoothSolver:  Solving for Ux, Initial residual = 1.24909e-08, Final residual = 1.5302e-17, No Iterations 2
diagonal:  Solving for rhoE, Initial residual = 0, Final residual = 0, No Iterations 0
TTR min/max: 216.893 / 322.185

min eInt cell=52 eInt=-84445.1 C=(0.25 0 0)
smoothSolver:  Solving for h, Initial residual = 2.48447e-08, Final residual = 1.66055e-17, No Iterations 2
ExecutionTime = 1.34 s  ClockTime = 1 s

Mean and max Courant Numbers = 0.110896 0.200628
deltaT = 6.13294e-05
Time = 0.00188554

diagonal:  Solving for rhoCont, Initial residual = 0, Final residual = 0, No Iterations 0
diagonal:  Solving for rhoY_Y_N2, Initial residual = 0, Final residual = 0, No Iterations 0
diagonal:  Solving for rhoY_Y_O2, Initial residual = 0, Final residual = 0, No Iterations 0
Sanity check: max(|rhoCont - rhoFromSpecies|) = 4.44089e-16

diagonal:  Solving for rhoUx, Initial residual = 0, Final residual = 0, No Iterations 0
smoothSolver:  Solving for Ux, Initial residual = 1.33056e-08, Final residual = 2.07753e-17, No Iterations 2
diagonal:  Solving for rhoE, Initial residual = 0, Final residual = 0, No Iterations 0
TTR min/max: 216.354 / 321.083

min eInt cell=52 eInt=-85004.8 C=(0.25 0 0)
smoothSolver:  Solving for h, Initial residual = 2.53252e-08, Final residual = 1.69158e-17, No Iterations 2
ExecutionTime = 1.38 s  ClockTime = 1 s

Mean and max Courant Numbers = 0.110949 0.198741
deltaT = 6.17179e-05
Time = 0.00194725

diagonal:  Solving for rhoCont, Initial residual = 0, Final residual = 0, No Iterations 0
diagonal:  Solving for rhoY_Y_N2, Initial residual = 0, Final residual = 0, No Iterations 0
diagonal:  Solving for rhoY_Y_O2, Initial residual = 0, Final residual = 0, No Iterations 0
Sanity check: max(|rhoCont - rhoFromSpecies|) = 3.88578e-16

diagonal:  Solving for rhoUx, Initial residual = 0, Final residual = 0, No Iterations 0
smoothSolver:  Solving for Ux, Initial residual = 1.2139e-08, Final residual = 2.60332e-17, No Iterations 2
diagonal:  Solving for rhoE, Initial residual = 0, Final residual = 0, No Iterations 0
TTR min/max: 216.596 / 322.993

min eInt cell=52 eInt=-84753.6 C=(0.25 0 0)
smoothSolver:  Solving for h, Initial residual = 2.51804e-08, Final residual = 1.62624e-17, No Iterations 2
ExecutionTime = 1.43 s  ClockTime = 1 s

Mean and max Courant Numbers = 0.111987 0.199645
deltaT = 6.18277e-05
Time = 0.00200908

diagonal:  Solving for rhoCont, Initial residual = 0, Final residual = 0, No Iterations 0
diagonal:  Solving for rhoY_Y_N2, Initial residual = 0, Final residual = 0, No Iterations 0
diagonal:  Solving for rhoY_Y_O2, Initial residual = 0, Final residual = 0, No Iterations 0
Sanity check: max(|rhoCont - rhoFromSpecies|) = 4.44089e-16

diagonal:  Solving for rhoUx, Initial residual = 0, Final residual = 0, No Iterations 0
smoothSolver:  Solving for Ux, Initial residual = 1.091e-08, Final residual = 1.48549e-17, No Iterations 2
diagonal:  Solving for rhoE, Initial residual = 0, Final residual = 0, No Iterations 0
TTR min/max: 217.582 / 324.023

min eInt cell=52 eInt=-83729 C=(0.25 0 0)
smoothSolver:  Solving for h, Initial residual = 2.49724e-08, Final residual = 1.86308e-17, No Iterations 2
ExecutionTime = 1.48 s  ClockTime = 1 s

Mean and max Courant Numbers = 0.112575 0.201839
deltaT = 6.12644e-05
Time = 0.00207035

diagonal:  Solving for rhoCont, Initial residual = 0, Final residual = 0, No Iterations 0
diagonal:  Solving for rhoY_Y_N2, Initial residual = 0, Final residual = 0, No Iterations 0
diagonal:  Solving for rhoY_Y_O2, Initial residual = 0, Final residual = 0, No Iterations 0
Sanity check: max(|rhoCont - rhoFromSpecies|) = 4.44089e-16

diagonal:  Solving for rhoUx, Initial residual = 0, Final residual = 0, No Iterations 0
smoothSolver:  Solving for Ux, Initial residual = 1.20736e-08, Final residual = 1.77454e-17, No Iterations 2
diagonal:  Solving for rhoE, Initial residual = 0, Final residual = 0, No Iterations 0
TTR min/max: 219.262 / 323.79

min eInt cell=52 eInt=-81983.8 C=(0.25 0 0)
smoothSolver:  Solving for h, Initial residual = 2.62573e-08, Final residual = 1.4648e-17, No Iterations 2
ExecutionTime = 1.52 s  ClockTime = 1 s

Mean and max Courant Numbers = 0.111963 0.199325
deltaT = 6.14718e-05
Time = 0.00213182

diagonal:  Solving for rhoCont, Initial residual = 0, Final residual = 0, No Iterations 0
diagonal:  Solving for rhoY_Y_N2, Initial residual = 0, Final residual = 0, No Iterations 0
diagonal:  Solving for rhoY_Y_O2, Initial residual = 0, Final residual = 0, No Iterations 0
Sanity check: max(|rhoCont - rhoFromSpecies|) = 4.996e-16

diagonal:  Solving for rhoUx, Initial residual = 0, Final residual = 0, No Iterations 0
smoothSolver:  Solving for Ux, Initial residual = 1.1411e-08, Final residual = 1.67896e-17, No Iterations 2
diagonal:  Solving for rhoE, Initial residual = 0, Final residual = 0, No Iterations 0
TTR min/max: 219.847 / 323.093

min eInt cell=53 eInt=-80865.5 C=(0.35 0 0)
smoothSolver:  Solving for h, Initial residual = 2.66968e-08, Final residual = 1.56757e-17, No Iterations 2
ExecutionTime = 1.59 s  ClockTime = 1 s

Mean and max Courant Numbers = 0.112671 0.198139
deltaT = 6.20491e-05
Time = 0.00219387

diagonal:  Solving for rhoCont, Initial residual = 0, Final residual = 0, No Iterations 0
diagonal:  Solving for rhoY_Y_N2, Initial residual = 0, Final residual = 0, No Iterations 0
diagonal:  Solving for rhoY_Y_O2, Initial residual = 0, Final residual = 0, No Iterations 0
Sanity check: max(|rhoCont - rhoFromSpecies|) = 4.996e-16

diagonal:  Solving for rhoUx, Initial residual = 0, Final residual = 0, No Iterations 0
smoothSolver:  Solving for Ux, Initial residual = 9.47163e-09, Final residual = 1.6762e-17, No Iterations 2
diagonal:  Solving for rhoE, Initial residual = 0, Final residual = 0, No Iterations 0
TTR min/max: 218.375 / 324.76

min eInt cell=53 eInt=-82677.7 C=(0.35 0 0)
smoothSolver:  Solving for h, Initial residual = 2.61116e-08, Final residual = 1.72744e-17, No Iterations 2
ExecutionTime = 1.65 s  ClockTime = 1 s

Mean and max Courant Numbers = 0.114081 0.202483
deltaT = 6.12883e-05
Time = 0.00225515

diagonal:  Solving for rhoCont, Initial residual = 0, Final residual = 0, No Iterations 0
diagonal:  Solving for rhoY_Y_N2, Initial residual = 0, Final residual = 0, No Iterations 0
diagonal:  Solving for rhoY_Y_O2, Initial residual = 0, Final residual = 0, No Iterations 0
Sanity check: max(|rhoCont - rhoFromSpecies|) = 4.44089e-16

diagonal:  Solving for rhoUx, Initial residual = 0, Final residual = 0, No Iterations 0
smoothSolver:  Solving for Ux, Initial residual = 1.08009e-08, Final residual = 1.91141e-17, No Iterations 2
diagonal:  Solving for rhoE, Initial residual = 0, Final residual = 0, No Iterations 0
TTR min/max: 217.507 / 325.196

min eInt cell=53 eInt=-83806.6 C=(0.35 0 0)
smoothSolver:  Solving for h, Initial residual = 2.57565e-08, Final residual = 1.74768e-17, No Iterations 2
ExecutionTime = 1.7 s  ClockTime = 2 s

Mean and max Courant Numbers = 0.113087 0.200148
deltaT = 6.12431e-05
Time = 0.0023164

diagonal:  Solving for rhoCont, Initial residual = 0, Final residual = 0, No Iterations 0
diagonal:  Solving for rhoY_Y_N2, Initial residual = 0, Final residual = 0, No Iterations 0
diagonal:  Solving for rhoY_Y_O2, Initial residual = 0, Final residual = 0, No Iterations 0
Sanity check: max(|rhoCont - rhoFromSpecies|) = 4.996e-16

diagonal:  Solving for rhoUx, Initial residual = 0, Final residual = 0, No Iterations 0
smoothSolver:  Solving for Ux, Initial residual = 1.07994e-08, Final residual = 1.41644e-17, No Iterations 2
diagonal:  Solving for rhoE, Initial residual = 0, Final residual = 0, No Iterations 0
TTR min/max: 217.014 / 324.691

min eInt cell=53 eInt=-84319.1 C=(0.35 0 0)
smoothSolver:  Solving for h, Initial residual = 2.54585e-08, Final residual = 1.75764e-17, No Iterations 2
ExecutionTime = 1.74 s  ClockTime = 2 s

Mean and max Courant Numbers = 0.113336 0.197689
deltaT = 6.19589e-05
Time = 0.00237836

diagonal:  Solving for rhoCont, Initial residual = 0, Final residual = 0, No Iterations 0
diagonal:  Solving for rhoY_Y_N2, Initial residual = 0, Final residual = 0, No Iterations 0
diagonal:  Solving for rhoY_Y_O2, Initial residual = 0, Final residual = 0, No Iterations 0
Sanity check: max(|rhoCont - rhoFromSpecies|) = 4.44089e-16

diagonal:  Solving for rhoUx, Initial residual = 0, Final residual = 0, No Iterations 0
smoothSolver:  Solving for Ux, Initial residual = 9.34927e-09, Final residual = 2.53349e-17, No Iterations 2
diagonal:  Solving for rhoE, Initial residual = 0, Final residual = 0, No Iterations 0
TTR min/max: 217.067 / 324.798

min eInt cell=53 eInt=-84264.1 C=(0.35 0 0)
smoothSolver:  Solving for h, Initial residual = 2.4375e-08, Final residual = 1.75303e-17, No Iterations 2
ExecutionTime = 1.79 s  ClockTime = 2 s

Mean and max Courant Numbers = 0.115014 0.20173
deltaT = 6.14275e-05
Time = 0.00243978

diagonal:  Solving for rhoCont, Initial residual = 0, Final residual = 0, No Iterations 0
diagonal:  Solving for rhoY_Y_N2, Initial residual = 0, Final residual = 0, No Iterations 0
diagonal:  Solving for rhoY_Y_O2, Initial residual = 0, Final residual = 0, No Iterations 0
Sanity check: max(|rhoCont - rhoFromSpecies|) = 4.44089e-16

diagonal:  Solving for rhoUx, Initial residual = 0, Final residual = 0, No Iterations 0
smoothSolver:  Solving for Ux, Initial residual = 9.72811e-09, Final residual = 1.97378e-17, No Iterations 2
diagonal:  Solving for rhoE, Initial residual = 0, Final residual = 0, No Iterations 0
TTR min/max: 217.704 / 325.702

min eInt cell=53 eInt=-83601.7 C=(0.35 0 0)
smoothSolver:  Solving for h, Initial residual = 2.4e-08, Final residual = 2.13196e-17, No Iterations 2
ExecutionTime = 1.84 s  ClockTime = 2 s

Mean and max Courant Numbers = 0.114455 0.200786
deltaT = 6.11871e-05
Time = 0.00250097

diagonal:  Solving for rhoCont, Initial residual = 0, Final residual = 0, No Iterations 0
diagonal:  Solving for rhoY_Y_N2, Initial residual = 0, Final residual = 0, No Iterations 0
diagonal:  Solving for rhoY_Y_O2, Initial residual = 0, Final residual = 0, No Iterations 0
Sanity check: max(|rhoCont - rhoFromSpecies|) = 4.996e-16

diagonal:  Solving for rhoUx, Initial residual = 0, Final residual = 0, No Iterations 0
smoothSolver:  Solving for Ux, Initial residual = 1.02771e-08, Final residual = 1.65486e-17, No Iterations 2
diagonal:  Solving for rhoE, Initial residual = 0, Final residual = 0, No Iterations 0
TTR min/max: 218.988 / 325.765

min eInt cell=53 eInt=-82267.8 C=(0.35 0 0)
smoothSolver:  Solving for h, Initial residual = 2.56012e-08, Final residual = 1.72102e-17, No Iterations 2
ExecutionTime = 1.88 s  ClockTime = 2 s

Mean and max Courant Numbers = 0.114381 0.197811
deltaT = 6.18641e-05
Time = 0.00256284

diagonal:  Solving for rhoCont, Initial residual = 0, Final residual = 0, No Iterations 0
diagonal:  Solving for rhoY_Y_N2, Initial residual = 0, Final residual = 0, No Iterations 0
diagonal:  Solving for rhoY_Y_O2, Initial residual = 0, Final residual = 0, No Iterations 0
Sanity check: max(|rhoCont - rhoFromSpecies|) = 4.44089e-16

diagonal:  Solving for rhoUx, Initial residual = 0, Final residual = 0, No Iterations 0
smoothSolver:  Solving for Ux, Initial residual = 9.12297e-09, Final residual = 1.51277e-17, No Iterations 2
diagonal:  Solving for rhoE, Initial residual = 0, Final residual = 0, No Iterations 0
TTR min/max: 219.42 / 324.857

min eInt cell=54 eInt=-81326.7 C=(0.45 0 0)
smoothSolver:  Solving for h, Initial residual = 2.63438e-08, Final residual = 1.87139e-17, No Iterations 2
ExecutionTime = 1.93 s  ClockTime = 2 s

Mean and max Courant Numbers = 0.115964 0.200477
deltaT = 6.17168e-05
Time = 0.00262455

diagonal:  Solving for rhoCont, Initial residual = 0, Final residual = 0, No Iterations 0
diagonal:  Solving for rhoY_Y_N2, Initial residual = 0, Final residual = 0, No Iterations 0
diagonal:  Solving for rhoY_Y_O2, Initial residual = 0, Final residual = 0, No Iterations 0
Sanity check: max(|rhoCont - rhoFromSpecies|) = 5.55112e-16

diagonal:  Solving for rhoUx, Initial residual = 0, Final residual = 0, No Iterations 0
smoothSolver:  Solving for Ux, Initial residual = 8.49672e-09, Final residual = 1.95067e-17, No Iterations 2
diagonal:  Solving for rhoE, Initial residual = 0, Final residual = 0, No Iterations 0
TTR min/max: 217.918 / 325.77

min eInt cell=54 eInt=-83153.9 C=(0.45 0 0)
smoothSolver:  Solving for h, Initial residual = 2.58359e-08, Final residual = 1.51487e-17, No Iterations 2
ExecutionTime = 1.98 s  ClockTime = 2 s

Mean and max Courant Numbers = 0.116052 0.201327
deltaT = 6.13099e-05
Time = 0.00268586

diagonal:  Solving for rhoCont, Initial residual = 0, Final residual = 0, No Iterations 0
diagonal:  Solving for rhoY_Y_N2, Initial residual = 0, Final residual = 0, No Iterations 0
diagonal:  Solving for rhoY_Y_O2, Initial residual = 0, Final residual = 0, No Iterations 0
Sanity check: max(|rhoCont - rhoFromSpecies|) = 6.66134e-16

diagonal:  Solving for rhoUx, Initial residual = 0, Final residual = 0, No Iterations 0
smoothSolver:  Solving for Ux, Initial residual = 9.47457e-09, Final residual = 1.64241e-17, No Iterations 2
diagonal:  Solving for rhoE, Initial residual = 0, Final residual = 0, No Iterations 0
TTR min/max: 216.904 / 326.031

min eInt cell=54 eInt=-84433.4 C=(0.45 0 0)
smoothSolver:  Solving for h, Initial residual = 2.67403e-08, Final residual = 1.79936e-17, No Iterations 2
ExecutionTime = 2.03 s  ClockTime = 2 s

Mean and max Courant Numbers = 0.115673 0.198943
deltaT = 6.16356e-05
Time = 0.0027475

diagonal:  Solving for rhoCont, Initial residual = 0, Final residual = 0, No Iterations 0
diagonal:  Solving for rhoY_Y_N2, Initial residual = 0, Final residual = 0, No Iterations 0
diagonal:  Solving for rhoY_Y_O2, Initial residual = 0, Final residual = 0, No Iterations 0
Sanity check: max(|rhoCont - rhoFromSpecies|) = 6.66134e-16

diagonal:  Solving for rhoUx, Initial residual = 0, Final residual = 0, No Iterations 0
smoothSolver:  Solving for Ux, Initial residual = 8.94052e-09, Final residual = 2.16653e-17, No Iterations 2
diagonal:  Solving for rhoE, Initial residual = 0, Final residual = 0, No Iterations 0
TTR min/max: 216.195 / 325.467

min eInt cell=54 eInt=-85169.9 C=(0.45 0 0)
smoothSolver:  Solving for h, Initial residual = 2.64819e-08, Final residual = 1.71402e-17, No Iterations 2
ExecutionTime = 2.07 s  ClockTime = 2 s

Mean and max Courant Numbers = 0.116612 0.198384
deltaT = 6.21378e-05
Time = 0.00280964

diagonal:  Solving for rhoCont, Initial residual = 0, Final residual = 0, No Iterations 0
diagonal:  Solving for rhoY_Y_N2, Initial residual = 0, Final residual = 0, No Iterations 0
diagonal:  Solving for rhoY_Y_O2, Initial residual = 0, Final residual = 0, No Iterations 0
Sanity check: max(|rhoCont - rhoFromSpecies|) = 9.99201e-16

diagonal:  Solving for rhoUx, Initial residual = 0, Final residual = 0, No Iterations 0
smoothSolver:  Solving for Ux, Initial residual = 7.67927e-09, Final residual = 2.63433e-17, No Iterations 2
diagonal:  Solving for rhoE, Initial residual = 0, Final residual = 0, No Iterations 0
TTR min/max: 216.044 / 325.769

min eInt cell=54 eInt=-85326.9 C=(0.45 0 0)
smoothSolver:  Solving for h, Initial residual = 2.51568e-08, Final residual = 1.89383e-17, No Iterations 2
ExecutionTime = 2.12 s  ClockTime = 2 s

Mean and max Courant Numbers = 0.117938 0.202662
deltaT = 6.13217e-05
Time = 0.00287096

diagonal:  Solving for rhoCont, Initial residual = 0, Final residual = 0, No Iterations 0
diagonal:  Solving for rhoY_Y_N2, Initial residual = 0, Final residual = 0, No Iterations 0
diagonal:  Solving for rhoY_Y_O2, Initial residual = 0, Final residual = 0, No Iterations 0
Sanity check: max(|rhoCont - rhoFromSpecies|) = 8.88178e-16

diagonal:  Solving for rhoUx, Initial residual = 0, Final residual = 0, No Iterations 0
smoothSolver:  Solving for Ux, Initial residual = 8.88177e-09, Final residual = 1.26537e-17, No Iterations 2
diagonal:  Solving for rhoE, Initial residual = 0, Final residual = 0, No Iterations 0
TTR min/max: 216.12 / 326.279

min eInt cell=50 eInt=-85248 C=(0.05 0 0)
smoothSolver:  Solving for h, Initial residual = 2.5241e-08, Final residual = 1.60955e-17, No Iterations 2
ExecutionTime = 2.17 s  ClockTime = 2 s

Mean and max Courant Numbers = 0.116814 0.199714
deltaT = 6.14097e-05
Time = 0.00293237

diagonal:  Solving for rhoCont, Initial residual = 0, Final residual = 0, No Iterations 0
diagonal:  Solving for rhoY_Y_N2, Initial residual = 0, Final residual = 0, No Iterations 0
diagonal:  Solving for rhoY_Y_O2, Initial residual = 0, Final residual = 0, No Iterations 0
Sanity check: max(|rhoCont - rhoFromSpecies|) = 1.11022e-15

diagonal:  Solving for rhoUx, Initial residual = 0, Final residual = 0, No Iterations 0
smoothSolver:  Solving for Ux, Initial residual = 8.75645e-09, Final residual = 2.28427e-17, No Iterations 2
diagonal:  Solving for rhoE, Initial residual = 0, Final residual = 0, No Iterations 0
TTR min/max: 215.313 / 325.96

min eInt cell=50 eInt=-86086.8 C=(0.05 0 0)
smoothSolver:  Solving for h, Initial residual = 2.58569e-08, Final residual = 1.85597e-17, No Iterations 2
ExecutionTime = 2.22 s  ClockTime = 2 s

Mean and max Courant Numbers = 0.117323 0.197831
deltaT = 6.20831e-05
Time = 0.00299445

diagonal:  Solving for rhoCont, Initial residual = 0, Final residual = 0, No Iterations 0
diagonal:  Solving for rhoY_Y_N2, Initial residual = 0, Final residual = 0, No Iterations 0
diagonal:  Solving for rhoY_Y_O2, Initial residual = 0, Final residual = 0, No Iterations 0
Sanity check: max(|rhoCont - rhoFromSpecies|) = 1.11022e-15

diagonal:  Solving for rhoUx, Initial residual = 0, Final residual = 0, No Iterations 0
smoothSolver:  Solving for Ux, Initial residual = 7.43658e-09, Final residual = 1.84549e-17, No Iterations 2
diagonal:  Solving for rhoE, Initial residual = 0, Final residual = 0, No Iterations 0
TTR min/max: 215.02 / 325.394

min eInt cell=50 eInt=-86391.1 C=(0.05 0 0)
smoothSolver:  Solving for h, Initial residual = 2.57311e-08, Final residual = 1.77127e-17, No Iterations 2
ExecutionTime = 2.26 s  ClockTime = 2 s

Mean and max Courant Numbers = 0.118949 0.20214
deltaT = 6.14259e-05
Time = 0.00305588

diagonal:  Solving for rhoCont, Initial residual = 0, Final residual = 0, No Iterations 0
diagonal:  Solving for rhoY_Y_N2, Initial residual = 0, Final residual = 0, No Iterations 0
diagonal:  Solving for rhoY_Y_O2, Initial residual = 0, Final residual = 0, No Iterations 0
Sanity check: max(|rhoCont - rhoFromSpecies|) = 9.99201e-16

diagonal:  Solving for rhoUx, Initial residual = 0, Final residual = 0, No Iterations 0
smoothSolver:  Solving for Ux, Initial residual = 8.20806e-09, Final residual = 2.23918e-17, No Iterations 2
diagonal:  Solving for rhoE, Initial residual = 0, Final residual = 0, No Iterations 0
TTR min/max: 215.328 / 326.213

min eInt cell=50 eInt=-86070.6 C=(0.05 0 0)
smoothSolver:  Solving for h, Initial residual = 2.58658e-08, Final residual = 1.53583e-17, No Iterations 2
ExecutionTime = 2.31 s  ClockTime = 2 s

Mean and max Courant Numbers = 0.118095 0.200583
deltaT = 6.12475e-05
Time = 0.00311712

diagonal:  Solving for rhoCont, Initial residual = 0, Final residual = 0, No Iterations 0
diagonal:  Solving for rhoY_Y_N2, Initial residual = 0, Final residual = 0, No Iterations 0
diagonal:  Solving for rhoY_Y_O2, Initial residual = 0, Final residual = 0, No Iterations 0
Sanity check: max(|rhoCont - rhoFromSpecies|) = 9.99201e-16

diagonal:  Solving for rhoUx, Initial residual = 0, Final residual = 0, No Iterations 0
smoothSolver:  Solving for Ux, Initial residual = 8.49482e-09, Final residual = 2.81002e-17, No Iterations 2
diagonal:  Solving for rhoE, Initial residual = 0, Final residual = 0, No Iterations 0
TTR min/max: 215.542 / 326.208

min eInt cell=55 eInt=-85848.5 C=(0.55 0 0)
smoothSolver:  Solving for h, Initial residual = 2.66867e-08, Final residual = 1.6212e-17, No Iterations 2
ExecutionTime = 2.36 s  ClockTime = 2 s

Mean and max Courant Numbers = 0.118105 0.197421
deltaT = 6.20476e-05
Time = 0.00317917

diagonal:  Solving for rhoCont, Initial residual = 0, Final residual = 0, No Iterations 0
diagonal:  Solving for rhoY_Y_N2, Initial residual = 0, Final residual = 0, No Iterations 0
diagonal:  Solving for rhoY_Y_O2, Initial residual = 0, Final residual = 0, No Iterations 0
Sanity check: max(|rhoCont - rhoFromSpecies|) = 1.11022e-15

diagonal:  Solving for rhoUx, Initial residual = 0, Final residual = 0, No Iterations 0
smoothSolver:  Solving for Ux, Initial residual = 7.57825e-09, Final residual = 1.92539e-17, No Iterations 2
diagonal:  Solving for rhoE, Initial residual = 0, Final residual = 0, No Iterations 0
TTR min/max: 214.782 / 325.37

min eInt cell=55 eInt=-86637.8 C=(0.55 0 0)
smoothSolver:  Solving for h, Initial residual = 2.67026e-08, Final residual = 1.76713e-17, No Iterations 2
ExecutionTime = 2.41 s  ClockTime = 2 s

Mean and max Courant Numbers = 0.11998 0.201208
deltaT = 6.16752e-05
Time = 0.00324085

diagonal:  Solving for rhoCont, Initial residual = 0, Final residual = 0, No Iterations 0
diagonal:  Solving for rhoY_Y_N2, Initial residual = 0, Final residual = 0, No Iterations 0
diagonal:  Solving for rhoY_Y_O2, Initial residual = 0, Final residual = 0, No Iterations 0
Sanity check: max(|rhoCont - rhoFromSpecies|) = 1.16573e-15

diagonal:  Solving for rhoUx, Initial residual = 0, Final residual = 0, No Iterations 0
smoothSolver:  Solving for Ux, Initial residual = 7.6838e-09, Final residual = 1.99739e-17, No Iterations 2
diagonal:  Solving for rhoE, Initial residual = 0, Final residual = 0, No Iterations 0
TTR min/max: 214.711 / 325.862

min eInt cell=55 eInt=-86712.1 C=(0.55 0 0)
smoothSolver:  Solving for h, Initial residual = 2.5994e-08, Final residual = 1.97602e-17, No Iterations 2
ExecutionTime = 2.45 s  ClockTime = 2 s

Mean and max Courant Numbers = 0.119676 0.201126
deltaT = 6.13298e-05
Time = 0.00330218

diagonal:  Solving for rhoCont, Initial residual = 0, Final residual = 0, No Iterations 0
diagonal:  Solving for rhoY_Y_N2, Initial residual = 0, Final residual = 0, No Iterations 0
diagonal:  Solving for rhoY_Y_O2, Initial residual = 0, Final residual = 0, No Iterations 0
Sanity check: max(|rhoCont - rhoFromSpecies|) = 1.16573e-15

diagonal:  Solving for rhoUx, Initial residual = 0, Final residual = 0, No Iterations 0
smoothSolver:  Solving for Ux, Initial residual = 8.34091e-09, Final residual = 1.99569e-17, No Iterations 2
diagonal:  Solving for rhoE, Initial residual = 0, Final residual = 0, No Iterations 0
TTR min/max: 214.138 / 326.086

min eInt cell=51 eInt=-87307 C=(0.15 0 0)
smoothSolver:  Solving for h, Initial residual = 2.67546e-08, Final residual = 2.13206e-17, No Iterations 2
ExecutionTime = 2.5 s  ClockTime = 2 s

Mean and max Courant Numbers = 0.119405 0.197968
deltaT = 6.19594e-05
Time = 0.00336414

diagonal:  Solving for rhoCont, Initial residual = 0, Final residual = 0, No Iterations 0
diagonal:  Solving for rhoY_Y_N2, Initial residual = 0, Final residual = 0, No Iterations 0
diagonal:  Solving for rhoY_Y_O2, Initial residual = 0, Final residual = 0, No Iterations 0
Sanity check: max(|rhoCont - rhoFromSpecies|) = 1.22125e-15

diagonal:  Solving for rhoUx, Initial residual = 0, Final residual = 0, No Iterations 0
smoothSolver:  Solving for Ux, Initial residual = 7.67246e-09, Final residual = 1.95286e-17, No Iterations 2
diagonal:  Solving for rhoE, Initial residual = 0, Final residual = 0, No Iterations 0
TTR min/max: 212.777 / 325.432

min eInt cell=51 eInt=-88721 C=(0.15 0 0)
smoothSolver:  Solving for h, Initial residual = 2.69027e-08, Final residual = 2.07849e-17, No Iterations 2
ExecutionTime = 2.55 s  ClockTime = 2 s

Mean and max Courant Numbers = 0.120959 0.199644
deltaT = 6.20698e-05
Time = 0.0034262

diagonal:  Solving for rhoCont, Initial residual = 0, Final residual = 0, No Iterations 0
diagonal:  Solving for rhoY_Y_N2, Initial residual = 0, Final residual = 0, No Iterations 0
diagonal:  Solving for rhoY_Y_O2, Initial residual = 0, Final residual = 0, No Iterations 0
Sanity check: max(|rhoCont - rhoFromSpecies|) = 1.33227e-15

diagonal:  Solving for rhoUx, Initial residual = 0, Final residual = 0, No Iterations 0
smoothSolver:  Solving for Ux, Initial residual = 7.0928e-09, Final residual = 1.64287e-17, No Iterations 2
diagonal:  Solving for rhoE, Initial residual = 0, Final residual = 0, No Iterations 0
TTR min/max: 212.001 / 325.488

min eInt cell=51 eInt=-89527 C=(0.15 0 0)
smoothSolver:  Solving for h, Initial residual = 2.60357e-08, Final residual = 1.76218e-17, No Iterations 2
ExecutionTime = 2.6 s  ClockTime = 2 s

Mean and max Courant Numbers = 0.12154 0.201912
deltaT = 6.1482e-05
Time = 0.00348769

diagonal:  Solving for rhoCont, Initial residual = 0, Final residual = 0, No Iterations 0
diagonal:  Solving for rhoY_Y_N2, Initial residual = 0, Final residual = 0, No Iterations 0
diagonal:  Solving for rhoY_Y_O2, Initial residual = 0, Final residual = 0, No Iterations 0
Sanity check: max(|rhoCont - rhoFromSpecies|) = 1.27676e-15

diagonal:  Solving for rhoUx, Initial residual = 0, Final residual = 0, No Iterations 0
smoothSolver:  Solving for Ux, Initial residual = 8.0531e-09, Final residual = 1.70702e-17, No Iterations 2
diagonal:  Solving for rhoE, Initial residual = 0, Final residual = 0, No Iterations 0
TTR min/max: 211.839 / 325.823

min eInt cell=51 eInt=-89695.5 C=(0.15 0 0)
smoothSolver:  Solving for h, Initial residual = 2.65405e-08, Final residual = 1.83234e-17, No Iterations 2
ExecutionTime = 2.65 s  ClockTime = 2 s

Mean and max Courant Numbers = 0.120791 0.199072
deltaT = 6.17685e-05
Time = 0.00354946

diagonal:  Solving for rhoCont, Initial residual = 0, Final residual = 0, No Iterations 0
diagonal:  Solving for rhoY_Y_N2, Initial residual = 0, Final residual = 0, No Iterations 0
diagonal:  Solving for rhoY_Y_O2, Initial residual = 0, Final residual = 0, No Iterations 0
Sanity check: max(|rhoCont - rhoFromSpecies|) = 1.27676e-15

diagonal:  Solving for rhoUx, Initial residual = 0, Final residual = 0, No Iterations 0
smoothSolver:  Solving for Ux, Initial residual = 7.71053e-09, Final residual = 2.41669e-17, No Iterations 2
diagonal:  Solving for rhoE, Initial residual = 0, Final residual = 0, No Iterations 0
TTR min/max: 212.229 / 325.331

min eInt cell=51 eInt=-89290.1 C=(0.15 0 0)
smoothSolver:  Solving for h, Initial residual = 2.64002e-08, Final residual = 2.03357e-17, No Iterations 2
ExecutionTime = 2.7 s  ClockTime = 3 s

Mean and max Courant Numbers = 0.121699 0.197975
deltaT = 6.24005e-05
Time = 0.00361186

diagonal:  Solving for rhoCont, Initial residual = 0, Final residual = 0, No Iterations 0
diagonal:  Solving for rhoY_Y_N2, Initial residual = 0, Final residual = 0, No Iterations 0
diagonal:  Solving for rhoY_Y_O2, Initial residual = 0, Final residual = 0, No Iterations 0
Sanity check: max(|rhoCont - rhoFromSpecies|) = 1.33227e-15

diagonal:  Solving for rhoUx, Initial residual = 0, Final residual = 0, No Iterations 0
smoothSolver:  Solving for Ux, Initial residual = 6.68275e-09, Final residual = 1.45582e-17, No Iterations 2
diagonal:  Solving for rhoE, Initial residual = 0, Final residual = 0, No Iterations 0
TTR min/max: 213.293 / 325.138

min eInt cell=51 eInt=-88184.7 C=(0.15 0 0)
smoothSolver:  Solving for h, Initial residual = 2.64481e-08, Final residual = 1.95528e-17, No Iterations 2
ExecutionTime = 2.75 s  ClockTime = 3 s

Mean and max Courant Numbers = 0.12333 0.202666
deltaT = 6.15797e-05
Time = 0.00367344

diagonal:  Solving for rhoCont, Initial residual = 0, Final residual = 0, No Iterations 0
diagonal:  Solving for rhoY_Y_N2, Initial residual = 0, Final residual = 0, No Iterations 0
diagonal:  Solving for rhoY_Y_O2, Initial residual = 0, Final residual = 0, No Iterations 0
Sanity check: max(|rhoCont - rhoFromSpecies|) = 1.38778e-15

diagonal:  Solving for rhoUx, Initial residual = 0, Final residual = 0, No Iterations 0
smoothSolver:  Solving for Ux, Initial residual = 7.74634e-09, Final residual = 2.27272e-17, No Iterations 2
diagonal:  Solving for rhoE, Initial residual = 0, Final residual = 0, No Iterations 0
TTR min/max: 213.52 / 325.709

min eInt cell=56 eInt=-87949.6 C=(0.65 0 0)
smoothSolver:  Solving for h, Initial residual = 2.66181e-08, Final residual = 1.83846e-17, No Iterations 2
ExecutionTime = 2.8 s  ClockTime = 3 s

Mean and max Courant Numbers = 0.122145 0.19994
deltaT = 6.15983e-05
Time = 0.00373503

diagonal:  Solving for rhoCont, Initial residual = 0, Final residual = 0, No Iterations 0
diagonal:  Solving for rhoY_Y_N2, Initial residual = 0, Final residual = 0, No Iterations 0
diagonal:  Solving for rhoY_Y_O2, Initial residual = 0, Final residual = 0, No Iterations 0
Sanity check: max(|rhoCont - rhoFromSpecies|) = 1.38778e-15

diagonal:  Solving for rhoUx, Initial residual = 0, Final residual = 0, No Iterations 0
smoothSolver:  Solving for Ux, Initial residual = 7.79465e-09, Final residual = 2.32009e-17, No Iterations 2
diagonal:  Solving for rhoE, Initial residual = 0, Final residual = 0, No Iterations 0
TTR min/max: 214.302 / 325.445

min eInt cell=56 eInt=-87136.5 C=(0.65 0 0)
smoothSolver:  Solving for h, Initial residual = 2.71688e-08, Final residual = 1.74067e-17, No Iterations 2
ExecutionTime = 2.85 s  ClockTime = 3 s

Mean and max Courant Numbers = 0.122531 0.197536
deltaT = 6.23667e-05
Time = 0.0037974

diagonal:  Solving for rhoCont, Initial residual = 0, Final residual = 0, No Iterations 0
diagonal:  Solving for rhoY_Y_N2, Initial residual = 0, Final residual = 0, No Iterations 0
diagonal:  Solving for rhoY_Y_O2, Initial residual = 0, Final residual = 0, No Iterations 0
Sanity check: max(|rhoCont - rhoFromSpecies|) = 1.27676e-15

diagonal:  Solving for rhoUx, Initial residual = 0, Final residual = 0, No Iterations 0
smoothSolver:  Solving for Ux, Initial residual = 6.8593e-09, Final residual = 2.51906e-17, No Iterations 2
diagonal:  Solving for rhoE, Initial residual = 0, Final residual = 0, No Iterations 0
TTR min/max: 214.604 / 324.502

min eInt cell=52 eInt=-86822.9 C=(0.25 0 0)
smoothSolver:  Solving for h, Initial residual = 2.71551e-08, Final residual = 2.04986e-17, No Iterations 2
ExecutionTime = 2.89 s  ClockTime = 3 s

Mean and max Courant Numbers = 0.124388 0.201873
deltaT = 6.17882e-05
Time = 0.00385919

diagonal:  Solving for rhoCont, Initial residual = 0, Final residual = 0, No Iterations 0
diagonal:  Solving for rhoY_Y_N2, Initial residual = 0, Final residual = 0, No Iterations 0
diagonal:  Solving for rhoY_Y_O2, Initial residual = 0, Final residual = 0, No Iterations 0
Sanity check: max(|rhoCont - rhoFromSpecies|) = 1.27676e-15

diagonal:  Solving for rhoUx, Initial residual = 0, Final residual = 0, No Iterations 0
smoothSolver:  Solving for Ux, Initial residual = 7.25325e-09, Final residual = 2.40091e-17, No Iterations 2
diagonal:  Solving for rhoE, Initial residual = 0, Final residual = 0, No Iterations 0
TTR min/max: 213.589 / 325.373

min eInt cell=52 eInt=-87877.2 C=(0.25 0 0)
smoothSolver:  Solving for h, Initial residual = 2.643e-08, Final residual = 2.18608e-17, No Iterations 2
ExecutionTime = 2.94 s  ClockTime = 3 s

Mean and max Courant Numbers = 0.12365 0.200905
deltaT = 6.151e-05
Time = 0.0039207

diagonal:  Solving for rhoCont, Initial residual = 0, Final residual = 0, No Iterations 0
diagonal:  Solving for rhoY_Y_N2, Initial residual = 0, Final residual = 0, No Iterations 0
diagonal:  Solving for rhoY_Y_O2, Initial residual = 0, Final residual = 0, No Iterations 0
Sanity check: max(|rhoCont - rhoFromSpecies|) = 1.33227e-15

diagonal:  Solving for rhoUx, Initial residual = 0, Final residual = 0, No Iterations 0
smoothSolver:  Solving for Ux, Initial residual = 7.60391e-09, Final residual = 2.83087e-17, No Iterations 2
diagonal:  Solving for rhoE, Initial residual = 0, Final residual = 0, No Iterations 0
TTR min/max: 213.03 / 325.448

min eInt cell=52 eInt=-88458.4 C=(0.25 0 0)
smoothSolver:  Solving for h, Initial residual = 2.7339e-08, Final residual = 1.77678e-17, No Iterations 2
ExecutionTime = 2.99 s  ClockTime = 3 s

Mean and max Courant Numbers = 0.123455 0.197208
deltaT = 6.23809e-05
Time = 0.00398308

diagonal:  Solving for rhoCont, Initial residual = 0, Final residual = 0, No Iterations 0
diagonal:  Solving for rhoY_Y_N2, Initial residual = 0, Final residual = 0, No Iterations 0
diagonal:  Solving for rhoY_Y_O2, Initial residual = 0, Final residual = 0, No Iterations 0
Sanity check: max(|rhoCont - rhoFromSpecies|) = 1.44329e-15

diagonal:  Solving for rhoUx, Initial residual = 0, Final residual = 0, No Iterations 0
smoothSolver:  Solving for Ux, Initial residual = 6.89599e-09, Final residual = 1.78607e-17, No Iterations 2
diagonal:  Solving for rhoE, Initial residual = 0, Final residual = 0, No Iterations 0
TTR min/max: 212.727 / 324.7

min eInt cell=57 eInt=-88772.8 C=(0.75 0 0)
smoothSolver:  Solving for h, Initial residual = 2.73878e-08, Final residual = 1.88851e-17, No Iterations 2
ExecutionTime = 3.04 s  ClockTime = 3 s

Mean and max Courant Numbers = 0.125539 0.200745
deltaT = 6.21493e-05
Time = 0.00404523

diagonal:  Solving for rhoCont, Initial residual = 0, Final residual = 0, No Iterations 0
diagonal:  Solving for rhoY_Y_N2, Initial residual = 0, Final residual = 0, No Iterations 0
diagonal:  Solving for rhoY_Y_O2, Initial residual = 0, Final residual = 0, No Iterations 0
Sanity check: max(|rhoCont - rhoFromSpecies|) = 1.38778e-15

diagonal:  Solving for rhoUx, Initial residual = 0, Final residual = 0, No Iterations 0
smoothSolver:  Solving for Ux, Initial residual = 6.77049e-09, Final residual = 2.42145e-17, No Iterations 2
diagonal:  Solving for rhoE, Initial residual = 0, Final residual = 0, No Iterations 0
TTR min/max: 212.471 / 324.825

min eInt cell=57 eInt=-89038.7 C=(0.75 0 0)
smoothSolver:  Solving for h, Initial residual = 2.5981e-08, Final residual = 2.30242e-17, No Iterations 2
ExecutionTime = 3.09 s  ClockTime = 3 s

Mean and max Courant Numbers = 0.125488 0.201378
deltaT = 6.17239e-05
Time = 0.00410695

diagonal:  Solving for rhoCont, Initial residual = 0, Final residual = 0, No Iterations 0
diagonal:  Solving for rhoY_Y_N2, Initial residual = 0, Final residual = 0, No Iterations 0
diagonal:  Solving for rhoY_Y_O2, Initial residual = 0, Final residual = 0, No Iterations 0
Sanity check: max(|rhoCont - rhoFromSpecies|) = 1.44329e-15

diagonal:  Solving for rhoUx, Initial residual = 0, Final residual = 0, No Iterations 0
smoothSolver:  Solving for Ux, Initial residual = 7.4215e-09, Final residual = 2.1662e-17, No Iterations 2
diagonal:  Solving for rhoE, Initial residual = 0, Final residual = 0, No Iterations 0
TTR min/max: 212.843 / 325.092

min eInt cell=57 eInt=-88652.8 C=(0.75 0 0)
smoothSolver:  Solving for h, Initial residual = 2.67244e-08, Final residual = 1.98034e-17, No Iterations 2
ExecutionTime = 3.13 s  ClockTime = 3 s

Mean and max Courant Numbers = 0.125052 0.19817
deltaT = 6.2294e-05
Time = 0.00416925

diagonal:  Solving for rhoCont, Initial residual = 0, Final residual = 0, No Iterations 0
diagonal:  Solving for rhoY_Y_N2, Initial residual = 0, Final residual = 0, No Iterations 0
diagonal:  Solving for rhoY_Y_O2, Initial residual = 0, Final residual = 0, No Iterations 0
Sanity check: max(|rhoCont - rhoFromSpecies|) = 1.60982e-15

diagonal:  Solving for rhoUx, Initial residual = 0, Final residual = 0, No Iterations 0
smoothSolver:  Solving for Ux, Initial residual = 6.97455e-09, Final residual = 1.45973e-17, No Iterations 2
diagonal:  Solving for rhoE, Initial residual = 0, Final residual = 0, No Iterations 0
TTR min/max: 213.84 / 324.537

min eInt cell=57 eInt=-87616.4 C=(0.75 0 0)
smoothSolver:  Solving for h, Initial residual = 2.70714e-08, Final residual = 2.00547e-17, No Iterations 2
ExecutionTime = 3.18 s  ClockTime = 3 s

Mean and max Courant Numbers = 0.126557 0.198909
deltaT = 6.26355e-05
Time = 0.00423188

diagonal:  Solving for rhoCont, Initial residual = 0, Final residual = 0, No Iterations 0
diagonal:  Solving for rhoY_Y_N2, Initial residual = 0, Final residual = 0, No Iterations 0
diagonal:  Solving for rhoY_Y_O2, Initial residual = 0, Final residual = 0, No Iterations 0
Sanity check: max(|rhoCont - rhoFromSpecies|) = 1.60982e-15

diagonal:  Solving for rhoUx, Initial residual = 0, Final residual = 0, No Iterations 0
smoothSolver:  Solving for Ux, Initial residual = 6.1713e-09, Final residual = 1.95673e-17, No Iterations 2
diagonal:  Solving for rhoE, Initial residual = 0, Final residual = 0, No Iterations 0
TTR min/max: 214.317 / 324.385

min eInt cell=58 eInt=-86775.8 C=(0.85 0 0)
smoothSolver:  Solving for h, Initial residual = 2.69107e-08, Final residual = 2.14579e-17, No Iterations 2
ExecutionTime = 3.23 s  ClockTime = 3 s

Mean and max Courant Numbers = 0.127629 0.202367
deltaT = 6.1903e-05
Time = 0.00429379

diagonal:  Solving for rhoCont, Initial residual = 0, Final residual = 0, No Iterations 0
diagonal:  Solving for rhoY_Y_N2, Initial residual = 0, Final residual = 0, No Iterations 0
diagonal:  Solving for rhoY_Y_O2, Initial residual = 0, Final residual = 0, No Iterations 0
Sanity check: max(|rhoCont - rhoFromSpecies|) = 1.60982e-15

diagonal:  Solving for rhoUx, Initial residual = 0, Final residual = 0, No Iterations 0
smoothSolver:  Solving for Ux, Initial residual = 7.04043e-09, Final residual = 2.21281e-17, No Iterations 2
diagonal:  Solving for rhoE, Initial residual = 0, Final residual = 0, No Iterations 0
TTR min/max: 213.073 / 324.799

min eInt cell=58 eInt=-88290.5 C=(0.85 0 0)
smoothSolver:  Solving for h, Initial residual = 2.73817e-08, Final residual = 2.37563e-17, No Iterations 2
ExecutionTime = 3.27 s  ClockTime = 3 s

Mean and max Courant Numbers = 0.126538 0.199293
deltaT = 6.21226e-05
Time = 0.00435591

diagonal:  Solving for rhoCont, Initial residual = 0, Final residual = 0, No Iterations 0
diagonal:  Solving for rhoY_Y_N2, Initial residual = 0, Final residual = 0, No Iterations 0
diagonal:  Solving for rhoY_Y_O2, Initial residual = 0, Final residual = 0, No Iterations 0
Sanity check: max(|rhoCont - rhoFromSpecies|) = 1.44329e-15

diagonal:  Solving for rhoUx, Initial residual = 0, Final residual = 0, No Iterations 0
smoothSolver:  Solving for Ux, Initial residual = 6.94587e-09, Final residual = 1.54239e-17, No Iterations 2
diagonal:  Solving for rhoE, Initial residual = 0, Final residual = 0, No Iterations 0
TTR min/max: 212.229 / 324.433

min eInt cell=58 eInt=-89291 C=(0.85 0 0)
smoothSolver:  Solving for h, Initial residual = 2.80738e-08, Final residual = 2.22171e-17, No Iterations 2
ExecutionTime = 3.32 s  ClockTime = 3 s

Mean and max Courant Numbers = 0.127315 0.197816
deltaT = 6.28084e-05
Time = 0.00441872

diagonal:  Solving for rhoCont, Initial residual = 0, Final residual = 0, No Iterations 0
diagonal:  Solving for rhoY_Y_N2, Initial residual = 0, Final residual = 0, No Iterations 0
diagonal:  Solving for rhoY_Y_O2, Initial residual = 0, Final residual = 0, No Iterations 0
Sanity check: max(|rhoCont - rhoFromSpecies|) = 1.33227e-15

diagonal:  Solving for rhoUx, Initial residual = 0, Final residual = 0, No Iterations 0
smoothSolver:  Solving for Ux, Initial residual = 6.03986e-09, Final residual = 2.16907e-17, No Iterations 2
diagonal:  Solving for rhoE, Initial residual = 0, Final residual = 0, No Iterations 0
TTR min/max: 211.713 / 323.897

min eInt cell=58 eInt=-89826.5 C=(0.85 0 0)
smoothSolver:  Solving for h, Initial residual = 2.77254e-08, Final residual = 1.62313e-17, No Iterations 2
ExecutionTime = 3.36 s  ClockTime = 3 s

Mean and max Courant Numbers = 0.129084 0.20239
deltaT = 6.20667e-05
Time = 0.00448078

diagonal:  Solving for rhoCont, Initial residual = 0, Final residual = 0, No Iterations 0
diagonal:  Solving for rhoY_Y_N2, Initial residual = 0, Final residual = 0, No Iterations 0
diagonal:  Solving for rhoY_Y_O2, Initial residual = 0, Final residual = 0, No Iterations 0
Sanity check: max(|rhoCont - rhoFromSpecies|) = 1.27676e-15

diagonal:  Solving for rhoUx, Initial residual = 0, Final residual = 0, No Iterations 0
smoothSolver:  Solving for Ux, Initial residual = 6.70467e-09, Final residual = 2.04151e-17, No Iterations 2
diagonal:  Solving for rhoE, Initial residual = 0, Final residual = 0, No Iterations 0
TTR min/max: 211.739 / 324.58

min eInt cell=58 eInt=-89799.3 C=(0.85 0 0)
smoothSolver:  Solving for h, Initial residual = 2.72047e-08, Final residual = 2.13418e-17, No Iterations 2
ExecutionTime = 3.41 s  ClockTime = 3 s

Mean and max Courant Numbers = 0.127996 0.200256
deltaT = 6.19872e-05
Time = 0.00454277

diagonal:  Solving for rhoCont, Initial residual = 0, Final residual = 0, No Iterations 0
diagonal:  Solving for rhoY_Y_N2, Initial residual = 0, Final residual = 0, No Iterations 0
diagonal:  Solving for rhoY_Y_O2, Initial residual = 0, Final residual = 0, No Iterations 0
Sanity check: max(|rhoCont - rhoFromSpecies|) = 1.33227e-15

diagonal:  Solving for rhoUx, Initial residual = 0, Final residual = 0, No Iterations 0
smoothSolver:  Solving for Ux, Initial residual = 6.85442e-09, Final residual = 2.28385e-17, No Iterations 2
diagonal:  Solving for rhoE, Initial residual = 0, Final residual = 0, No Iterations 0
TTR min/max: 212.38 / 324.486

min eInt cell=58 eInt=-89134 C=(0.85 0 0)
smoothSolver:  Solving for h, Initial residual = 2.75997e-08, Final residual = 2.35558e-17, No Iterations 2
ExecutionTime = 3.46 s  ClockTime = 3 s

Mean and max Courant Numbers = 0.128205 0.197432
deltaT = 6.27934e-05
Time = 0.00460556

diagonal:  Solving for rhoCont, Initial residual = 0, Final residual = 0, No Iterations 0
diagonal:  Solving for rhoY_Y_N2, Initial residual = 0, Final residual = 0, No Iterations 0
diagonal:  Solving for rhoY_Y_O2, Initial residual = 0, Final residual = 0, No Iterations 0
Sanity check: max(|rhoCont - rhoFromSpecies|) = 1.33227e-15

diagonal:  Solving for rhoUx, Initial residual = 0, Final residual = 0, No Iterations 0
smoothSolver:  Solving for Ux, Initial residual = 6.05131e-09, Final residual = 2.18104e-17, No Iterations 2
diagonal:  Solving for rhoE, Initial residual = 0, Final residual = 0, No Iterations 0
TTR min/max: 213.624 / 323.754

min eInt cell=58 eInt=-87841.2 C=(0.85 0 0)
smoothSolver:  Solving for h, Initial residual = 2.72074e-08, Final residual = 2.30961e-17, No Iterations 2
ExecutionTime = 3.51 s  ClockTime = 3 s

Mean and max Courant Numbers = 0.130224 0.201461
deltaT = 6.2338e-05
Time = 0.0046679

diagonal:  Solving for rhoCont, Initial residual = 0, Final residual = 0, No Iterations 0
diagonal:  Solving for rhoY_Y_N2, Initial residual = 0, Final residual = 0, No Iterations 0
diagonal:  Solving for rhoY_Y_O2, Initial residual = 0, Final residual = 0, No Iterations 0
Sanity check: max(|rhoCont - rhoFromSpecies|) = 1.44329e-15

diagonal:  Solving for rhoUx, Initial residual = 0, Final residual = 0, No Iterations 0
smoothSolver:  Solving for Ux, Initial residual = 6.28162e-09, Final residual = 2.29339e-17, No Iterations 2
diagonal:  Solving for rhoE, Initial residual = 0, Final residual = 0, No Iterations 0
TTR min/max: 212.748 / 324.136

min eInt cell=59 eInt=-88530.8 C=(0.95 0 0)
smoothSolver:  Solving for h, Initial residual = 2.65934e-08, Final residual = 1.96016e-17, No Iterations 2
ExecutionTime = 3.56 s  ClockTime = 3 s

Mean and max Courant Numbers = 0.129692 0.20116
deltaT = 6.19786e-05
Time = 0.00472988

diagonal:  Solving for rhoCont, Initial residual = 0, Final residual = 0, No Iterations 0
diagonal:  Solving for rhoY_Y_N2, Initial residual = 0, Final residual = 0, No Iterations 0
diagonal:  Solving for rhoY_Y_O2, Initial residual = 0, Final residual = 0, No Iterations 0
Sanity check: max(|rhoCont - rhoFromSpecies|) = 1.55431e-15

diagonal:  Solving for rhoUx, Initial residual = 0, Final residual = 0, No Iterations 0
smoothSolver:  Solving for Ux, Initial residual = 6.76483e-09, Final residual = 2.42907e-17, No Iterations 2
diagonal:  Solving for rhoE, Initial residual = 0, Final residual = 0, No Iterations 0
TTR min/max: 211.766 / 324.394

min eInt cell=59 eInt=-89750.9 C=(0.95 0 0)
smoothSolver:  Solving for h, Initial residual = 2.75632e-08, Final residual = 1.80054e-17, No Iterations 2
ExecutionTime = 3.61 s  ClockTime = 3 s

Mean and max Courant Numbers = 0.129292 0.197331
deltaT = 6.2817e-05
Time = 0.0047927

diagonal:  Solving for rhoCont, Initial residual = 0, Final residual = 0, No Iterations 0
diagonal:  Solving for rhoY_Y_N2, Initial residual = 0, Final residual = 0, No Iterations 0
diagonal:  Solving for rhoY_Y_O2, Initial residual = 0, Final residual = 0, No Iterations 0
Sanity check: max(|rhoCont - rhoFromSpecies|) = 1.55431e-15

diagonal:  Solving for rhoUx, Initial residual = 0, Final residual = 0, No Iterations 0
smoothSolver:  Solving for Ux, Initial residual = 6.12758e-09, Final residual = 2.56453e-17, No Iterations 2
diagonal:  Solving for rhoE, Initial residual = 0, Final residual = 0, No Iterations 0
TTR min/max: 211.061 / 323.882

min eInt cell=59 eInt=-90504.5 C=(0.95 0 0)
smoothSolver:  Solving for h, Initial residual = 2.80563e-08, Final residual = 2.76296e-17, No Iterations 2
ExecutionTime = 3.65 s  ClockTime = 3 s

Mean and max Courant Numbers = 0.131365 0.200194
deltaT = 6.27562e-05
Time = 0.00485545

diagonal:  Solving for rhoCont, Initial residual = 0, Final residual = 0, No Iterations 0
diagonal:  Solving for rhoY_Y_N2, Initial residual = 0, Final residual = 0, No Iterations 0
diagonal:  Solving for rhoY_Y_O2, Initial residual = 0, Final residual = 0, No Iterations 0
Sanity check: max(|rhoCont - rhoFromSpecies|) = 1.33227e-15

diagonal:  Solving for rhoUx, Initial residual = 0, Final residual = 0, No Iterations 0
smoothSolver:  Solving for Ux, Initial residual = 5.86401e-09, Final residual = 2.41911e-17, No Iterations 2
diagonal:  Solving for rhoE, Initial residual = 0, Final residual = 0, No Iterations 0
TTR min/max: 210.789 / 323.53

min eInt cell=59 eInt=-90786.7 C=(0.95 0 0)
smoothSolver:  Solving for h, Initial residual = 2.7803e-08, Final residual = 2.35001e-17, No Iterations 2
ExecutionTime = 3.7 s  ClockTime = 4 s

Mean and max Courant Numbers = 0.131634 0.201551
deltaT = 6.22734e-05
Time = 0.00491773

diagonal:  Solving for rhoCont, Initial residual = 0, Final residual = 0, No Iterations 0
diagonal:  Solving for rhoY_Y_N2, Initial residual = 0, Final residual = 0, No Iterations 0
diagonal:  Solving for rhoY_Y_O2, Initial residual = 0, Final residual = 0, No Iterations 0
Sanity check: max(|rhoCont - rhoFromSpecies|) = 1.33227e-15

diagonal:  Solving for rhoUx, Initial residual = 0, Final residual = 0, No Iterations 0
smoothSolver:  Solving for Ux, Initial residual = 6.51918e-09, Final residual = 2.43449e-17, No Iterations 2
diagonal:  Solving for rhoE, Initial residual = 0, Final residual = 0, No Iterations 0
TTR min/max: 211.138 / 323.901

min eInt cell=59 eInt=-90424 C=(0.95 0 0)
smoothSolver:  Solving for h, Initial residual = 2.8607e-08, Final residual = 1.84283e-17, No Iterations 2
ExecutionTime = 3.75 s  ClockTime = 4 s

Mean and max Courant Numbers = 0.131035 0.198747
deltaT = 6.26659e-05
Time = 0.00498039

diagonal:  Solving for rhoCont, Initial residual = 0, Final residual = 0, No Iterations 0
diagonal:  Solving for rhoY_Y_N2, Initial residual = 0, Final residual = 0, No Iterations 0
diagonal:  Solving for rhoY_Y_O2, Initial residual = 0, Final residual = 0, No Iterations 0
Sanity check: max(|rhoCont - rhoFromSpecies|) = 1.55431e-15

diagonal:  Solving for rhoUx, Initial residual = 0, Final residual = 0, No Iterations 0
smoothSolver:  Solving for Ux, Initial residual = 6.16746e-09, Final residual = 2.21464e-17, No Iterations 2
diagonal:  Solving for rhoE, Initial residual = 0, Final residual = 0, No Iterations 0
TTR min/max: 212.097 / 324.051

min eInt cell=59 eInt=-89427.9 C=(0.95 0 0)
smoothSolver:  Solving for h, Initial residual = 2.85077e-08, Final residual = 2.07383e-17, No Iterations 2
ExecutionTime = 3.8 s  ClockTime = 4 s

Mean and max Courant Numbers = 0.132213 0.198176
deltaT = 6.32426e-05
Time = 0.00504364

diagonal:  Solving for rhoCont, Initial residual = 0, Final residual = 0, No Iterations 0
diagonal:  Solving for rhoY_Y_N2, Initial residual = 0, Final residual = 0, No Iterations 0
diagonal:  Solving for rhoY_Y_O2, Initial residual = 0, Final residual = 0, No Iterations 0
Sanity check: max(|rhoCont - rhoFromSpecies|) = 1.33227e-15

diagonal:  Solving for rhoUx, Initial residual = 0, Final residual = 0, No Iterations 0
smoothSolver:  Solving for Ux, Initial residual = 5.3719e-09, Final residual = 2.31737e-17, No Iterations 2
diagonal:  Solving for rhoE, Initial residual = 0, Final residual = 0, No Iterations 0
TTR min/max: 212.283 / 324.017

min eInt cell=60 eInt=-88936.3 C=(1.05 0 0)
smoothSolver:  Solving for h, Initial residual = 2.81496e-08, Final residual = 2.1315e-17, No Iterations 2
ExecutionTime = 3.85 s  ClockTime = 4 s

Mean and max Courant Numbers = 0.133816 0.202704
deltaT = 6.23992e-05
Time = 0.00510603

diagonal:  Solving for rhoCont, Initial residual = 0, Final residual = 0, No Iterations 0
diagonal:  Solving for rhoY_Y_N2, Initial residual = 0, Final residual = 0, No Iterations 0
diagonal:  Solving for rhoY_Y_O2, Initial residual = 0, Final residual = 0, No Iterations 0
Sanity check: max(|rhoCont - rhoFromSpecies|) = 1.33227e-15

diagonal:  Solving for rhoUx, Initial residual = 0, Final residual = 0, No Iterations 0
smoothSolver:  Solving for Ux, Initial residual = 6.18875e-09, Final residual = 2.48223e-17, No Iterations 2
diagonal:  Solving for rhoE, Initial residual = 0, Final residual = 0, No Iterations 0
TTR min/max: 211.102 / 324.004

min eInt cell=60 eInt=-90372.1 C=(1.05 0 0)
smoothSolver:  Solving for h, Initial residual = 2.8424e-08, Final residual = 1.98958e-17, No Iterations 2
ExecutionTime = 3.89 s  ClockTime = 4 s

Mean and max Courant Numbers = 0.132446 0.199706
deltaT = 6.2491e-05
Time = 0.00516853

diagonal:  Solving for rhoCont, Initial residual = 0, Final residual = 0, No Iterations 0
diagonal:  Solving for rhoY_Y_N2, Initial residual = 0, Final residual = 0, No Iterations 0
diagonal:  Solving for rhoY_Y_O2, Initial residual = 0, Final residual = 0, No Iterations 0
Sanity check: max(|rhoCont - rhoFromSpecies|) = 1.22125e-15

diagonal:  Solving for rhoUx, Initial residual = 0, Final residual = 0, No Iterations 0
smoothSolver:  Solving for Ux, Initial residual = 6.2155e-09, Final residual = 2.88694e-17, No Iterations 2
diagonal:  Solving for rhoE, Initial residual = 0, Final residual = 0, No Iterations 0
TTR min/max: 210.309 / 324.177

min eInt cell=60 eInt=-91284.9 C=(1.05 0 0)
smoothSolver:  Solving for h, Initial residual = 2.91513e-08, Final residual = 2.41575e-17, No Iterations 2
ExecutionTime = 3.94 s  ClockTime = 4 s

Mean and max Courant Numbers = 0.132972 0.197744
deltaT = 6.3204e-05
Time = 0.00523173

diagonal:  Solving for rhoCont, Initial residual = 0, Final residual = 0, No Iterations 0
diagonal:  Solving for rhoY_Y_N2, Initial residual = 0, Final residual = 0, No Iterations 0
diagonal:  Solving for rhoY_Y_O2, Initial residual = 0, Final residual = 0, No Iterations 0
Sanity check: max(|rhoCont - rhoFromSpecies|) = 1.22125e-15

diagonal:  Solving for rhoUx, Initial residual = 0, Final residual = 0, No Iterations 0
smoothSolver:  Solving for Ux, Initial residual = 5.50043e-09, Final residual = 1.8712e-17, No Iterations 2
diagonal:  Solving for rhoE, Initial residual = 0, Final residual = 0, No Iterations 0
TTR min/max: 209.885 / 324.209

min eInt cell=60 eInt=-91725.5 C=(1.05 0 0)
smoothSolver:  Solving for h, Initial residual = 2.9248e-08, Final residual = 1.9665e-17, No Iterations 2
ExecutionTime = 3.99 s  ClockTime = 4 s

Mean and max Courant Numbers = 0.134837 0.201992
deltaT = 6.25807e-05
Time = 0.00529431

diagonal:  Solving for rhoCont, Initial residual = 0, Final residual = 0, No Iterations 0
diagonal:  Solving for rhoY_Y_N2, Initial residual = 0, Final residual = 0, No Iterations 0
diagonal:  Solving for rhoY_Y_O2, Initial residual = 0, Final residual = 0, No Iterations 0
Sanity check: max(|rhoCont - rhoFromSpecies|) = 1.16573e-15

diagonal:  Solving for rhoUx, Initial residual = 0, Final residual = 0, No Iterations 0
smoothSolver:  Solving for Ux, Initial residual = 5.90428e-09, Final residual = 2.81056e-17, No Iterations 2
diagonal:  Solving for rhoE, Initial residual = 0, Final residual = 0, No Iterations 0
TTR min/max: 209.991 / 324.114

min eInt cell=60 eInt=-91615.6 C=(1.05 0 0)
smoothSolver:  Solving for h, Initial residual = 2.91102e-08, Final residual = 1.62523e-17, No Iterations 2
[...]
diagonal:  Solving for rhoE, Initial residual = 0, Final residual = 0, No Iterations 0
TTR min/max: 250.267 / 358.063

min eInt cell=34 eInt=-49768 C=(-1.55 0 0)
smoothSolver:  Solving for h, Initial residual = 2.2777e-08, Final residual = 3.42252e-17, No Iterations 2
ExecutionTime = 40.1 s  ClockTime = 40 s

Mean and max Courant Numbers = 0.149259 0.200608
deltaT = 6.82737e-05
Time = 0.0546138

diagonal:  Solving for rhoCont, Initial residual = 0, Final residual = 0, No Iterations 0
diagonal:  Solving for rhoY_Y_N2, Initial residual = 0, Final residual = 0, No Iterations 0
diagonal:  Solving for rhoY_Y_O2, Initial residual = 0, Final residual = 0, No Iterations 0
Sanity check: max(|rhoCont - rhoFromSpecies|) = 5.44009e-15

diagonal:  Solving for rhoUx, Initial residual = 0, Final residual = 0, No Iterations 0
smoothSolver:  Solving for Ux, Initial residual = 9.26845e-09, Final residual = 3.2669e-17, No Iterations 2
diagonal:  Solving for rhoE, Initial residual = 0, Final residual = 0, No Iterations 0
TTR min/max: 249.932 / 357.832

min eInt cell=32 eInt=-50115.6 C=(-1.75 0 0)
smoothSolver:  Solving for h, Initial residual = 2.25758e-08, Final residual = 3.22578e-17, No Iterations 2
ExecutionTime = 40.14 s  ClockTime = 40 s

Mean and max Courant Numbers = 0.148704 0.200014
deltaT = 6.82689e-05
Time = 0.054682

diagonal:  Solving for rhoCont, Initial residual = 0, Final residual = 0, No Iterations 0
diagonal:  Solving for rhoY_Y_N2, Initial residual = 0, Final residual = 0, No Iterations 0
diagonal:  Solving for rhoY_Y_O2, Initial residual = 0, Final residual = 0, No Iterations 0
Sanity check: max(|rhoCont - rhoFromSpecies|) = 5.32907e-15

diagonal:  Solving for rhoUx, Initial residual = 0, Final residual = 0, No Iterations 0
smoothSolver:  Solving for Ux, Initial residual = 9.56735e-09, Final residual = 3.53985e-17, No Iterations 2
diagonal:  Solving for rhoE, Initial residual = 0, Final residual = 0, No Iterations 0
TTR min/max: 249.32 / 357.596

min eInt cell=32 eInt=-50751.9 C=(-1.75 0 0)
smoothSolver:  Solving for h, Initial residual = 2.23096e-08, Final residual = 3.44673e-17, No Iterations 2
ExecutionTime = 40.19 s  ClockTime = 40 s

Mean and max Courant Numbers = 0.148525 0.200271
deltaT = 6.81767e-05
Time = 0.0547502

diagonal:  Solving for rhoCont, Initial residual = 0, Final residual = 0, No Iterations 0
diagonal:  Solving for rhoY_Y_N2, Initial residual = 0, Final residual = 0, No Iterations 0
diagonal:  Solving for rhoY_Y_O2, Initial residual = 0, Final residual = 0, No Iterations 0
Sanity check: max(|rhoCont - rhoFromSpecies|) = 5.32907e-15

diagonal:  Solving for rhoUx, Initial residual = 0, Final residual = 0, No Iterations 0
smoothSolver:  Solving for Ux, Initial residual = 9.79653e-09, Final residual = 3.9029e-17, No Iterations 2
diagonal:  Solving for rhoE, Initial residual = 0, Final residual = 0, No Iterations 0
TTR min/max: 249.033 / 357.357

min eInt cell=32 eInt=-51050.6 C=(-1.75 0 0)
smoothSolver:  Solving for h, Initial residual = 2.23275e-08, Final residual = 3.97973e-17, No Iterations 2
ExecutionTime = 40.24 s  ClockTime = 40 s

Mean and max Courant Numbers = 0.148133 0.200343
deltaT = 6.80601e-05
Time = 0.0548183

diagonal:  Solving for rhoCont, Initial residual = 0, Final residual = 0, No Iterations 0
diagonal:  Solving for rhoY_Y_N2, Initial residual = 0, Final residual = 0, No Iterations 0
diagonal:  Solving for rhoY_Y_O2, Initial residual = 0, Final residual = 0, No Iterations 0
Sanity check: max(|rhoCont - rhoFromSpecies|) = 5.21805e-15

diagonal:  Solving for rhoUx, Initial residual = 0, Final residual = 0, No Iterations 0
smoothSolver:  Solving for Ux, Initial residual = 9.76555e-09, Final residual = 3.78945e-17, No Iterations 2
diagonal:  Solving for rhoE, Initial residual = 0, Final residual = 0, No Iterations 0
TTR min/max: 248.939 / 357.116

min eInt cell=32 eInt=-51148 C=(-1.75 0 0)
smoothSolver:  Solving for h, Initial residual = 2.20586e-08, Final residual = 3.87617e-17, No Iterations 2
ExecutionTime = 40.29 s  ClockTime = 40 s

Mean and max Courant Numbers = 0.147675 0.2
deltaT = 6.80601e-05
Time = 0.0548863

diagonal:  Solving for rhoCont, Initial residual = 0, Final residual = 0, No Iterations 0
diagonal:  Solving for rhoY_Y_N2, Initial residual = 0, Final residual = 0, No Iterations 0
diagonal:  Solving for rhoY_Y_O2, Initial residual = 0, Final residual = 0, No Iterations 0
Sanity check: max(|rhoCont - rhoFromSpecies|) = 5.32907e-15

diagonal:  Solving for rhoUx, Initial residual = 0, Final residual = 0, No Iterations 0
smoothSolver:  Solving for Ux, Initial residual = 9.00374e-09, Final residual = 3.24558e-17, No Iterations 2
diagonal:  Solving for rhoE, Initial residual = 0, Final residual = 0, No Iterations 0
TTR min/max: 248.908 / 356.872

min eInt cell=32 eInt=-51180 C=(-1.75 0 0)
smoothSolver:  Solving for h, Initial residual = 2.16096e-08, Final residual = 3.88327e-17, No Iterations 2
ExecutionTime = 40.33 s  ClockTime = 40 s

Mean and max Courant Numbers = 0.147425 0.200443
deltaT = 6.79097e-05
Time = 0.0549542

diagonal:  Solving for rhoCont, Initial residual = 0, Final residual = 0, No Iterations 0
diagonal:  Solving for rhoY_Y_N2, Initial residual = 0, Final residual = 0, No Iterations 0
diagonal:  Solving for rhoY_Y_O2, Initial residual = 0, Final residual = 0, No Iterations 0
Sanity check: max(|rhoCont - rhoFromSpecies|) = 5.32907e-15

diagonal:  Solving for rhoUx, Initial residual = 0, Final residual = 0, No Iterations 0
smoothSolver:  Solving for Ux, Initial residual = 8.82171e-09, Final residual = 3.84382e-17, No Iterations 2
diagonal:  Solving for rhoE, Initial residual = 0, Final residual = 0, No Iterations 0
TTR min/max: 248.903 / 356.629

min eInt cell=32 eInt=-51185.2 C=(-1.75 0 0)
smoothSolver:  Solving for h, Initial residual = 2.10378e-08, Final residual = 3.51017e-17, No Iterations 2
ExecutionTime = 40.38 s  ClockTime = 40 s

Mean and max Courant Numbers = 0.146849 0.200156
deltaT = 6.78569e-05
Time = 0.0550221

diagonal:  Solving for rhoCont, Initial residual = 0, Final residual = 0, No Iterations 0
diagonal:  Solving for rhoY_Y_N2, Initial residual = 0, Final residual = 0, No Iterations 0
diagonal:  Solving for rhoY_Y_O2, Initial residual = 0, Final residual = 0, No Iterations 0
Sanity check: max(|rhoCont - rhoFromSpecies|) = 5.32907e-15

diagonal:  Solving for rhoUx, Initial residual = 0, Final residual = 0, No Iterations 0
smoothSolver:  Solving for Ux, Initial residual = 9.44148e-09, Final residual = 3.83835e-17, No Iterations 2
diagonal:  Solving for rhoE, Initial residual = 0, Final residual = 0, No Iterations 0
TTR min/max: 248.405 / 356.385

min eInt cell=30 eInt=-51703.1 C=(-1.95 0 0)
smoothSolver:  Solving for h, Initial residual = 2.03e-08, Final residual = 3.3232e-17, No Iterations 2
ExecutionTime = 40.43 s  ClockTime = 40 s

Mean and max Courant Numbers = 0.146518 0.199955
deltaT = 6.78723e-05
Time = 0.05509

diagonal:  Solving for rhoCont, Initial residual = 0, Final residual = 0, No Iterations 0
diagonal:  Solving for rhoY_Y_N2, Initial residual = 0, Final residual = 0, No Iterations 0
diagonal:  Solving for rhoY_Y_O2, Initial residual = 0, Final residual = 0, No Iterations 0
Sanity check: max(|rhoCont - rhoFromSpecies|) = 5.55112e-15

diagonal:  Solving for rhoUx, Initial residual = 0, Final residual = 0, No Iterations 0
smoothSolver:  Solving for Ux, Initial residual = 9.64949e-09, Final residual = 3.10831e-17, No Iterations 2
diagonal:  Solving for rhoE, Initial residual = 0, Final residual = 0, No Iterations 0
TTR min/max: 247.982 / 356.142

min eInt cell=30 eInt=-52142.5 C=(-1.95 0 0)
smoothSolver:  Solving for h, Initial residual = 2.0896e-08, Final residual = 3.42314e-17, No Iterations 2
ExecutionTime = 40.47 s  ClockTime = 40 s

Mean and max Courant Numbers = 0.146404 0.200077
deltaT = 6.78461e-05
Time = 0.0551578

diagonal:  Solving for rhoCont, Initial residual = 0, Final residual = 0, No Iterations 0
diagonal:  Solving for rhoY_Y_N2, Initial residual = 0, Final residual = 0, No Iterations 0
diagonal:  Solving for rhoY_Y_O2, Initial residual = 0, Final residual = 0, No Iterations 0
Sanity check: max(|rhoCont - rhoFromSpecies|) = 5.55112e-15

diagonal:  Solving for rhoUx, Initial residual = 0, Final residual = 0, No Iterations 0
smoothSolver:  Solving for Ux, Initial residual = 9.98901e-09, Final residual = 4.04808e-17, No Iterations 2
diagonal:  Solving for rhoE, Initial residual = 0, Final residual = 0, No Iterations 0
TTR min/max: 247.807 / 355.902

min eInt cell=30 eInt=-52323.8 C=(-1.95 0 0)
smoothSolver:  Solving for h, Initial residual = 2.20856e-08, Final residual = 3.57566e-17, No Iterations 2
ExecutionTime = 40.53 s  ClockTime = 40 s

Mean and max Courant Numbers = 0.146197 0.201133
deltaT = 6.74639e-05
Time = 0.0552253

diagonal:  Solving for rhoCont, Initial residual = 0, Final residual = 0, No Iterations 0
diagonal:  Solving for rhoY_Y_N2, Initial residual = 0, Final residual = 0, No Iterations 0
diagonal:  Solving for rhoY_Y_O2, Initial residual = 0, Final residual = 0, No Iterations 0
Sanity check: max(|rhoCont - rhoFromSpecies|) = 5.55112e-15

diagonal:  Solving for rhoUx, Initial residual = 0, Final residual = 0, No Iterations 0
smoothSolver:  Solving for Ux, Initial residual = 9.84814e-09, Final residual = 3.84973e-17, No Iterations 2
diagonal:  Solving for rhoE, Initial residual = 0, Final residual = 0, No Iterations 0
TTR min/max: 247.768 / 355.665

min eInt cell=30 eInt=-52364.5 C=(-1.95 0 0)
smoothSolver:  Solving for h, Initial residual = 2.30283e-08, Final residual = 3.32805e-17, No Iterations 2
ExecutionTime = 40.58 s  ClockTime = 40 s

Mean and max Courant Numbers = 0.145259 0.20122
deltaT = 6.70549e-05
Time = 0.0552923

diagonal:  Solving for rhoCont, Initial residual = 0, Final residual = 0, No Iterations 0
diagonal:  Solving for rhoY_Y_N2, Initial residual = 0, Final residual = 0, No Iterations 0
diagonal:  Solving for rhoY_Y_O2, Initial residual = 0, Final residual = 0, No Iterations 0
Sanity check: max(|rhoCont - rhoFromSpecies|) = 5.55112e-15

diagonal:  Solving for rhoUx, Initial residual = 0, Final residual = 0, No Iterations 0
smoothSolver:  Solving for Ux, Initial residual = 9.33943e-09, Final residual = 4.38848e-17, No Iterations 2
diagonal:  Solving for rhoE, Initial residual = 0, Final residual = 0, No Iterations 0
TTR min/max: 247.755 / 355.433

min eInt cell=30 eInt=-52378 C=(-1.95 0 0)
smoothSolver:  Solving for h, Initial residual = 2.36351e-08, Final residual = 3.4945e-17, No Iterations 2
ExecutionTime = 40.63 s  ClockTime = 41 s

Mean and max Courant Numbers = 0.144248 0.201252
deltaT = 6.66376e-05
Time = 0.055359

diagonal:  Solving for rhoCont, Initial residual = 0, Final residual = 0, No Iterations 0
diagonal:  Solving for rhoY_Y_N2, Initial residual = 0, Final residual = 0, No Iterations 0
diagonal:  Solving for rhoY_Y_O2, Initial residual = 0, Final residual = 0, No Iterations 0
Sanity check: max(|rhoCont - rhoFromSpecies|) = 5.44009e-15

diagonal:  Solving for rhoUx, Initial residual = 0, Final residual = 0, No Iterations 0
smoothSolver:  Solving for Ux, Initial residual = 9.02772e-09, Final residual = 3.73946e-17, No Iterations 2
diagonal:  Solving for rhoE, Initial residual = 0, Final residual = 0, No Iterations 0
TTR min/max: 247.767 / 355.212

min eInt cell=30 eInt=-52366.3 C=(-1.95 0 0)
smoothSolver:  Solving for h, Initial residual = 2.39907e-08, Final residual = 3.60429e-17, No Iterations 2
ExecutionTime = 40.68 s  ClockTime = 41 s

Mean and max Courant Numbers = 0.143223 0.201293
deltaT = 6.62094e-05
Time = 0.0554252

diagonal:  Solving for rhoCont, Initial residual = 0, Final residual = 0, No Iterations 0
diagonal:  Solving for rhoY_Y_N2, Initial residual = 0, Final residual = 0, No Iterations 0
diagonal:  Solving for rhoY_Y_O2, Initial residual = 0, Final residual = 0, No Iterations 0
Sanity check: max(|rhoCont - rhoFromSpecies|) = 5.44009e-15

diagonal:  Solving for rhoUx, Initial residual = 0, Final residual = 0, No Iterations 0
smoothSolver:  Solving for Ux, Initial residual = 8.5629e-09, Final residual = 3.22439e-17, No Iterations 2
diagonal:  Solving for rhoE, Initial residual = 0, Final residual = 0, No Iterations 0
TTR min/max: 247.372 / 355.029

min eInt cell=28 eInt=-52775.9 C=(-2.15 0 0)
smoothSolver:  Solving for h, Initial residual = 2.42865e-08, Final residual = 3.1084e-17, No Iterations 2
ExecutionTime = 40.74 s  ClockTime = 41 s

Mean and max Courant Numbers = 0.142146 0.200485
deltaT = 6.60492e-05
Time = 0.0554912

diagonal:  Solving for rhoCont, Initial residual = 0, Final residual = 0, No Iterations 0
diagonal:  Solving for rhoY_Y_N2, Initial residual = 0, Final residual = 0, No Iterations 0
diagonal:  Solving for rhoY_Y_O2, Initial residual = 0, Final residual = 0, No Iterations 0
Sanity check: max(|rhoCont - rhoFromSpecies|) = 5.44009e-15

diagonal:  Solving for rhoUx, Initial residual = 0, Final residual = 0, No Iterations 0
smoothSolver:  Solving for Ux, Initial residual = 8.59926e-09, Final residual = 3.74014e-17, No Iterations 2
diagonal:  Solving for rhoE, Initial residual = 0, Final residual = 0, No Iterations 0
TTR min/max: 247.073 / 354.842

min eInt cell=28 eInt=-53087 C=(-2.15 0 0)
smoothSolver:  Solving for h, Initial residual = 2.44587e-08, Final residual = 2.81358e-17, No Iterations 2
ExecutionTime = 40.79 s  ClockTime = 41 s

Mean and max Courant Numbers = 0.141663 0.199663
deltaT = 6.61607e-05
Time = 0.0555574

diagonal:  Solving for rhoCont, Initial residual = 0, Final residual = 0, No Iterations 0
diagonal:  Solving for rhoY_Y_N2, Initial residual = 0, Final residual = 0, No Iterations 0
diagonal:  Solving for rhoY_Y_O2, Initial residual = 0, Final residual = 0, No Iterations 0
Sanity check: max(|rhoCont - rhoFromSpecies|) = 5.44009e-15

diagonal:  Solving for rhoUx, Initial residual = 0, Final residual = 0, No Iterations 0
smoothSolver:  Solving for Ux, Initial residual = 9.54572e-09, Final residual = 3.3192e-17, No Iterations 2
diagonal:  Solving for rhoE, Initial residual = 0, Final residual = 0, No Iterations 0
TTR min/max: 246.964 / 354.653

min eInt cell=28 eInt=-53200.1 C=(-2.15 0 0)
smoothSolver:  Solving for h, Initial residual = 2.44614e-08, Final residual = 3.10326e-17, No Iterations 2
ExecutionTime = 40.84 s  ClockTime = 41 s

Mean and max Courant Numbers = 0.141744 0.1986
deltaT = 6.66272e-05
Time = 0.055624

diagonal:  Solving for rhoCont, Initial residual = 0, Final residual = 0, No Iterations 0
diagonal:  Solving for rhoY_Y_N2, Initial residual = 0, Final residual = 0, No Iterations 0
diagonal:  Solving for rhoY_Y_O2, Initial residual = 0, Final residual = 0, No Iterations 0
Sanity check: max(|rhoCont - rhoFromSpecies|) = 5.32907e-15

diagonal:  Solving for rhoUx, Initial residual = 0, Final residual = 0, No Iterations 0
smoothSolver:  Solving for Ux, Initial residual = 1.02133e-08, Final residual = 3.58209e-17, No Iterations 2
diagonal:  Solving for rhoE, Initial residual = 0, Final residual = 0, No Iterations 0
TTR min/max: 246.935 / 354.459

min eInt cell=28 eInt=-53230.6 C=(-2.15 0 0)
smoothSolver:  Solving for h, Initial residual = 2.44895e-08, Final residual = 3.45902e-17, No Iterations 2
ExecutionTime = 40.89 s  ClockTime = 41 s

Mean and max Courant Numbers = 0.142566 0.197335
deltaT = 6.75272e-05
Time = 0.0556915

diagonal:  Solving for rhoCont, Initial residual = 0, Final residual = 0, No Iterations 0
diagonal:  Solving for rhoY_Y_N2, Initial residual = 0, Final residual = 0, No Iterations 0
diagonal:  Solving for rhoY_Y_O2, Initial residual = 0, Final residual = 0, No Iterations 0
Sanity check: max(|rhoCont - rhoFromSpecies|) = 5.32907e-15

diagonal:  Solving for rhoUx, Initial residual = 0, Final residual = 0, No Iterations 0
smoothSolver:  Solving for Ux, Initial residual = 1.08104e-08, Final residual = 4.01897e-17, No Iterations 2
diagonal:  Solving for rhoE, Initial residual = 0, Final residual = 0, No Iterations 0
TTR min/max: 246.93 / 354.261

min eInt cell=28 eInt=-53236 C=(-2.15 0 0)
smoothSolver:  Solving for h, Initial residual = 2.5035e-08, Final residual = 3.15412e-17, No Iterations 2
ExecutionTime = 40.94 s  ClockTime = 41 s

Mean and max Courant Numbers = 0.144287 0.195763
deltaT = 6.89888e-05
Time = 0.0557605

diagonal:  Solving for rhoCont, Initial residual = 0, Final residual = 0, No Iterations 0
diagonal:  Solving for rhoY_Y_N2, Initial residual = 0, Final residual = 0, No Iterations 0
diagonal:  Solving for rhoY_Y_O2, Initial residual = 0, Final residual = 0, No Iterations 0
Sanity check: max(|rhoCont - rhoFromSpecies|) = 5.32907e-15

diagonal:  Solving for rhoUx, Initial residual = 0, Final residual = 0, No Iterations 0
smoothSolver:  Solving for Ux, Initial residual = 1.12751e-08, Final residual = 3.77769e-17, No Iterations 2
diagonal:  Solving for rhoE, Initial residual = 0, Final residual = 0, No Iterations 0
TTR min/max: 246.953 / 354.058

min eInt cell=28 eInt=-53211.4 C=(-2.15 0 0)
smoothSolver:  Solving for h, Initial residual = 2.53459e-08, Final residual = 3.43969e-17, No Iterations 2
ExecutionTime = 40.99 s  ClockTime = 41 s

Mean and max Courant Numbers = 0.147196 0.193687
deltaT = 7.12373e-05
Time = 0.0558318

diagonal:  Solving for rhoCont, Initial residual = 0, Final residual = 0, No Iterations 0
diagonal:  Solving for rhoY_Y_N2, Initial residual = 0, Final residual = 0, No Iterations 0
diagonal:  Solving for rhoY_Y_O2, Initial residual = 0, Final residual = 0, No Iterations 0
Sanity check: max(|rhoCont - rhoFromSpecies|) = 5.32907e-15

diagonal:  Solving for rhoUx, Initial residual = 0, Final residual = 0, No Iterations 0
smoothSolver:  Solving for Ux, Initial residual = 1.09852e-08, Final residual = 4.13217e-17, No Iterations 2
diagonal:  Solving for rhoE, Initial residual = 0, Final residual = 0, No Iterations 0
TTR min/max: 247.037 / 353.848

min eInt cell=28 eInt=-53124.5 C=(-2.15 0 0)
smoothSolver:  Solving for h, Initial residual = 2.54436e-08, Final residual = 3.43304e-17, No Iterations 2
ExecutionTime = 41.04 s  ClockTime = 41 s

Mean and max Courant Numbers = 0.151747 0.193833
deltaT = 7.35036e-05
Time = 0.0559053

diagonal:  Solving for rhoCont, Initial residual = 0, Final residual = 0, No Iterations 0
diagonal:  Solving for rhoY_Y_N2, Initial residual = 0, Final residual = 0, No Iterations 0
diagonal:  Solving for rhoY_Y_O2, Initial residual = 0, Final residual = 0, No Iterations 0
Sanity check: max(|rhoCont - rhoFromSpecies|) = 5.21805e-15

diagonal:  Solving for rhoUx, Initial residual = 0, Final residual = 0, No Iterations 0
smoothSolver:  Solving for Ux, Initial residual = 9.99177e-09, Final residual = 3.53335e-17, No Iterations 2
diagonal:  Solving for rhoE, Initial residual = 0, Final residual = 0, No Iterations 0
TTR min/max: 245.606 / 353.643

min eInt cell=25 eInt=-54611.8 C=(-2.45 0 0)
smoothSolver:  Solving for h, Initial residual = 2.53777e-08, Final residual = 3.61723e-17, No Iterations 2
ExecutionTime = 41.09 s  ClockTime = 41 s

Mean and max Courant Numbers = 0.156307 0.197738
deltaT = 7.43444e-05
Time = 0.0559796

diagonal:  Solving for rhoCont, Initial residual = 0, Final residual = 0, No Iterations 0
diagonal:  Solving for rhoY_Y_N2, Initial residual = 0, Final residual = 0, No Iterations 0
diagonal:  Solving for rhoY_Y_O2, Initial residual = 0, Final residual = 0, No Iterations 0
Sanity check: max(|rhoCont - rhoFromSpecies|) = 5.21805e-15

diagonal:  Solving for rhoUx, Initial residual = 0, Final residual = 0, No Iterations 0
smoothSolver:  Solving for Ux, Initial residual = 9.49293e-09, Final residual = 3.88374e-17, No Iterations 2
diagonal:  Solving for rhoE, Initial residual = 0, Final residual = 0, No Iterations 0
TTR min/max: 243.857 / 353.44

min eInt cell=25 eInt=-56429 C=(-2.45 0 0)
smoothSolver:  Solving for h, Initial residual = 2.5139e-08, Final residual = 3.43087e-17, No Iterations 2
ExecutionTime = 41.13 s  ClockTime = 41 s

End

