/*---------------------------------------------------------------------------*\
| =========                 |                                                 |
| \\      /  F ield         | OpenFOAM: The Open Source CFD Toolbox           |
|  \\    /   O peration     | Version:  2412                                  |
|   \\  /    A nd           | Website:  www.openfoam.com                      |
|    \\/     M anipulation  |                                                 |
\*---------------------------------------------------------------------------*/
Build  : 0bb0c1db74-20250528 OPENFOAM=2412 version=v2412
Arch   : "LSB;label=32;scalar=64"
Exec   : nexaFoam
Date   : Feb 06 2026
Time   : 12:37:04
Host   : FurkanLinux
PID    : 813675
I/O    : uncollated
Case   : /home/t12022124597/Desktop/codeProjects/masterThesisCode/nexaFoam/tutorials/compressible/nexaFoam/sodShockTube_twoComp
nProcs : 1
trapFpe: Floating point exception trapping enabled (FOAM_SIGFPE).
fileModificationChecking : Monitoring run-time modified files using timeStampMaster (fileModificationSkew 5, maxFileModificationPolls 20)
allowSystemOperations : Allowing user-supplied system call operations

// * * * * * * * * * * * * * * * * * * * * * * * * * * * * * * * * * * * * * //
Create time

Create mesh for time = 0.00906707

Multiple species are found in mixture.

Selecting thermodynamics package 
{
    type            heNe2TReactionThermo;
    mixture         multiComponent2TMixture;
    transport       blottnerEucken2T;
    thermo          janaf2T;
    equationOfState perfect2TGas;
    specie          specie2T;
    energy          sensibleCalculation2T;
}

--> FOAM Warning : 
    From void Foam::multiComponent2TMixture<ThermoType>::correctMassFractions() [with ThermoType = Foam::blottnerEucken2TTransport<Foam::species::thermo2T<Foam::janaf2TThermo<Foam::perfect2TGas<Foam::specie2T> >, Foam::sensibleCalculation2T> >]
    in file lnInclude/multiComponent2TMixture.C at line 78
    Sum of mass fractions is different from one for species 2(N2 O2)
    Max of mass fraction sum differs from 1 by 4.9e-07
Reading field U

Creating turbulence model

Selecting turbulence model type laminar
Selecting laminar stress model Stokes
fluxScheme: Kurganov

Starting time loop

Sampled set:
    xLine -> csv

Mean and max Courant Numbers = 0.155391 0.199344
deltaT = 6.22183e-05
Time = 0.00912929

diagonal:  Solving for rhoCont, Initial residual = 0, Final residual = 0, No Iterations 0
diagonal:  Solving for rhoY_Y_N2, Initial residual = 0, Final residual = 0, No Iterations 0
diagonal:  Solving for rhoY_Y_O2, Initial residual = 0, Final residual = 0, No Iterations 0
diagonal:  Solving for rhoUx, Initial residual = 0, Final residual = 0, No Iterations 0
smoothSolver:  Solving for Ux, Initial residual = 5.56261e-09, Final residual = 3.44864e-17, No Iterations 2
diagonal:  Solving for rhoE, Initial residual = 0, Final residual = 0, No Iterations 0
smoothSolver:  Solving for h, Initial residual = 3.51314e-08, Final residual = 2.58624e-17, No Iterations 2
Sanity check: max(|rhoCont - rhoFromSpecies|) = 1.11022e-16

ExecutionTime = 0.11 s  ClockTime = 0 s

Mean and max Courant Numbers = 0.156214 0.198733
deltaT = 6.2615e-05
Time = 0.0091919

diagonal:  Solving for rhoCont, Initial residual = 0, Final residual = 0, No Iterations 0
diagonal:  Solving for rhoY_Y_N2, Initial residual = 0, Final residual = 0, No Iterations 0
diagonal:  Solving for rhoY_Y_O2, Initial residual = 0, Final residual = 0, No Iterations 0
diagonal:  Solving for rhoUx, Initial residual = 0, Final residual = 0, No Iterations 0
smoothSolver:  Solving for Ux, Initial residual = 5.06947e-09, Final residual = 3.79241e-17, No Iterations 2
diagonal:  Solving for rhoE, Initial residual = 0, Final residual = 0, No Iterations 0
smoothSolver:  Solving for h, Initial residual = 3.55196e-08, Final residual = 3.01602e-17, No Iterations 2
Sanity check: max(|rhoCont - rhoFromSpecies|) = 1.11022e-16

ExecutionTime = 0.17 s  ClockTime = 0 s

Mean and max Courant Numbers = 0.157568 0.202358
deltaT = 6.18854e-05
Time = 0.00925379

diagonal:  Solving for rhoCont, Initial residual = 0, Final residual = 0, No Iterations 0
diagonal:  Solving for rhoY_Y_N2, Initial residual = 0, Final residual = 0, No Iterations 0
diagonal:  Solving for rhoY_Y_O2, Initial residual = 0, Final residual = 0, No Iterations 0
diagonal:  Solving for rhoUx, Initial residual = 0, Final residual = 0, No Iterations 0
smoothSolver:  Solving for Ux, Initial residual = 5.87365e-09, Final residual = 3.89006e-17, No Iterations 2
diagonal:  Solving for rhoE, Initial residual = 0, Final residual = 0, No Iterations 0
smoothSolver:  Solving for h, Initial residual = 3.62452e-08, Final residual = 2.72017e-17, No Iterations 2
Sanity check: max(|rhoCont - rhoFromSpecies|) = 2.22045e-16

ExecutionTime = 0.22 s  ClockTime = 1 s

Mean and max Courant Numbers = 0.15614 0.199855
deltaT = 6.19304e-05
Time = 0.00931572

diagonal:  Solving for rhoCont, Initial residual = 0, Final residual = 0, No Iterations 0
diagonal:  Solving for rhoY_Y_N2, Initial residual = 0, Final residual = 0, No Iterations 0
diagonal:  Solving for rhoY_Y_O2, Initial residual = 0, Final residual = 0, No Iterations 0
diagonal:  Solving for rhoUx, Initial residual = 0, Final residual = 0, No Iterations 0
smoothSolver:  Solving for Ux, Initial residual = 5.81896e-09, Final residual = 3.68087e-17, No Iterations 2
diagonal:  Solving for rhoE, Initial residual = 0, Final residual = 0, No Iterations 0
smoothSolver:  Solving for h, Initial residual = 3.63982e-08, Final residual = 2.97018e-17, No Iterations 2
Sanity check: max(|rhoCont - rhoFromSpecies|) = 2.22045e-16

ExecutionTime = 0.27 s  ClockTime = 1 s

Mean and max Courant Numbers = 0.156604 0.19814
deltaT = 6.25116e-05
Time = 0.00937823

diagonal:  Solving for rhoCont, Initial residual = 0, Final residual = 0, No Iterations 0
diagonal:  Solving for rhoY_Y_N2, Initial residual = 0, Final residual = 0, No Iterations 0
diagonal:  Solving for rhoY_Y_O2, Initial residual = 0, Final residual = 0, No Iterations 0
diagonal:  Solving for rhoUx, Initial residual = 0, Final residual = 0, No Iterations 0
smoothSolver:  Solving for Ux, Initial residual = 5.08784e-09, Final residual = 3.84793e-17, No Iterations 2
diagonal:  Solving for rhoE, Initial residual = 0, Final residual = 0, No Iterations 0
smoothSolver:  Solving for h, Initial residual = 3.56079e-08, Final residual = 3.05399e-17, No Iterations 2
Sanity check: max(|rhoCont - rhoFromSpecies|) = 3.33067e-16

ExecutionTime = 0.33 s  ClockTime = 1 s

Mean and max Courant Numbers = 0.158441 0.20208
deltaT = 6.18683e-05
Time = 0.0094401

diagonal:  Solving for rhoCont, Initial residual = 0, Final residual = 0, No Iterations 0
diagonal:  Solving for rhoY_Y_N2, Initial residual = 0, Final residual = 0, No Iterations 0
diagonal:  Solving for rhoY_Y_O2, Initial residual = 0, Final residual = 0, No Iterations 0
diagonal:  Solving for rhoUx, Initial residual = 0, Final residual = 0, No Iterations 0
smoothSolver:  Solving for Ux, Initial residual = 5.74922e-09, Final residual = 3.87584e-17, No Iterations 2
diagonal:  Solving for rhoE, Initial residual = 0, Final residual = 0, No Iterations 0
smoothSolver:  Solving for h, Initial residual = 3.50547e-08, Final residual = 3.28639e-17, No Iterations 2
Sanity check: max(|rhoCont - rhoFromSpecies|) = 3.33067e-16

ExecutionTime = 0.38 s  ClockTime = 1 s

Mean and max Courant Numbers = 0.157251 0.200525
deltaT = 6.17062e-05
Time = 0.00950181

diagonal:  Solving for rhoCont, Initial residual = 0, Final residual = 0, No Iterations 0
diagonal:  Solving for rhoY_Y_N2, Initial residual = 0, Final residual = 0, No Iterations 0
diagonal:  Solving for rhoY_Y_O2, Initial residual = 0, Final residual = 0, No Iterations 0
diagonal:  Solving for rhoUx, Initial residual = 0, Final residual = 0, No Iterations 0
smoothSolver:  Solving for Ux, Initial residual = 5.9602e-09, Final residual = 3.91213e-17, No Iterations 2
diagonal:  Solving for rhoE, Initial residual = 0, Final residual = 0, No Iterations 0
smoothSolver:  Solving for h, Initial residual = 3.59426e-08, Final residual = 3.57383e-17, No Iterations 2
Sanity check: max(|rhoCont - rhoFromSpecies|) = 3.88578e-16

ExecutionTime = 0.43 s  ClockTime = 1 s

Mean and max Courant Numbers = 0.15721 0.197675
deltaT = 6.2432e-05
Time = 0.00956424

diagonal:  Solving for rhoCont, Initial residual = 0, Final residual = 0, No Iterations 0
diagonal:  Solving for rhoY_Y_N2, Initial residual = 0, Final residual = 0, No Iterations 0
diagonal:  Solving for rhoY_Y_O2, Initial residual = 0, Final residual = 0, No Iterations 0
diagonal:  Solving for rhoUx, Initial residual = 0, Final residual = 0, No Iterations 0
smoothSolver:  Solving for Ux, Initial residual = 5.41368e-09, Final residual = 3.86875e-17, No Iterations 2
diagonal:  Solving for rhoE, Initial residual = 0, Final residual = 0, No Iterations 0
smoothSolver:  Solving for h, Initial residual = 3.63678e-08, Final residual = 3.63349e-17, No Iterations 2
Sanity check: max(|rhoCont - rhoFromSpecies|) = 4.44089e-16

ExecutionTime = 0.49 s  ClockTime = 1 s

Mean and max Courant Numbers = 0.159379 0.201341
deltaT = 6.20161e-05
Time = 0.00962625

diagonal:  Solving for rhoCont, Initial residual = 0, Final residual = 0, No Iterations 0
diagonal:  Solving for rhoY_Y_N2, Initial residual = 0, Final residual = 0, No Iterations 0
diagonal:  Solving for rhoY_Y_O2, Initial residual = 0, Final residual = 0, No Iterations 0
diagonal:  Solving for rhoUx, Initial residual = 0, Final residual = 0, No Iterations 0
smoothSolver:  Solving for Ux, Initial residual = 5.64761e-09, Final residual = 4.47103e-17, No Iterations 2
diagonal:  Solving for rhoE, Initial residual = 0, Final residual = 0, No Iterations 0
smoothSolver:  Solving for h, Initial residual = 3.63134e-08, Final residual = 3.10349e-17, No Iterations 2
Sanity check: max(|rhoCont - rhoFromSpecies|) = 4.996e-16

ExecutionTime = 0.55 s  ClockTime = 1 s

Mean and max Courant Numbers = 0.158697 0.200933
deltaT = 6.17282e-05
Time = 0.00968798

diagonal:  Solving for rhoCont, Initial residual = 0, Final residual = 0, No Iterations 0
diagonal:  Solving for rhoY_Y_N2, Initial residual = 0, Final residual = 0, No Iterations 0
diagonal:  Solving for rhoY_Y_O2, Initial residual = 0, Final residual = 0, No Iterations 0
diagonal:  Solving for rhoUx, Initial residual = 0, Final residual = 0, No Iterations 0
smoothSolver:  Solving for Ux, Initial residual = 6.11196e-09, Final residual = 4.20586e-17, No Iterations 2
diagonal:  Solving for rhoE, Initial residual = 0, Final residual = 0, No Iterations 0
smoothSolver:  Solving for h, Initial residual = 3.76011e-08, Final residual = 3.46296e-17, No Iterations 2
Sanity check: max(|rhoCont - rhoFromSpecies|) = 4.996e-16

ExecutionTime = 0.61 s  ClockTime = 1 s

Mean and max Courant Numbers = 0.158337 0.19821
deltaT = 6.22856e-05
Time = 0.00975027

diagonal:  Solving for rhoCont, Initial residual = 0, Final residual = 0, No Iterations 0
diagonal:  Solving for rhoY_Y_N2, Initial residual = 0, Final residual = 0, No Iterations 0
diagonal:  Solving for rhoY_Y_O2, Initial residual = 0, Final residual = 0, No Iterations 0
diagonal:  Solving for rhoUx, Initial residual = 0, Final residual = 0, No Iterations 0
smoothSolver:  Solving for Ux, Initial residual = 5.63552e-09, Final residual = 3.83978e-17, No Iterations 2
diagonal:  Solving for rhoE, Initial residual = 0, Final residual = 0, No Iterations 0
smoothSolver:  Solving for h, Initial residual = 3.76355e-08, Final residual = 2.63481e-17, No Iterations 2
Sanity check: max(|rhoCont - rhoFromSpecies|) = 4.44089e-16

ExecutionTime = 0.67 s  ClockTime = 1 s

Mean and max Courant Numbers = 0.160105 0.199888
deltaT = 6.23204e-05
Time = 0.00981259

diagonal:  Solving for rhoCont, Initial residual = 0, Final residual = 0, No Iterations 0
diagonal:  Solving for rhoY_Y_N2, Initial residual = 0, Final residual = 0, No Iterations 0
diagonal:  Solving for rhoY_Y_O2, Initial residual = 0, Final residual = 0, No Iterations 0
diagonal:  Solving for rhoUx, Initial residual = 0, Final residual = 0, No Iterations 0
smoothSolver:  Solving for Ux, Initial residual = 5.38842e-09, Final residual = 4.02906e-17, No Iterations 2
diagonal:  Solving for rhoE, Initial residual = 0, Final residual = 0, No Iterations 0
smoothSolver:  Solving for h, Initial residual = 3.59413e-08, Final residual = 2.99826e-17, No Iterations 2
Sanity check: max(|rhoCont - rhoFromSpecies|) = 4.44089e-16

ExecutionTime = 0.72 s  ClockTime = 1 s

Mean and max Courant Numbers = 0.160584 0.201743
deltaT = 6.1782e-05
Time = 0.00987437

diagonal:  Solving for rhoCont, Initial residual = 0, Final residual = 0, No Iterations 0
diagonal:  Solving for rhoY_Y_N2, Initial residual = 0, Final residual = 0, No Iterations 0
diagonal:  Solving for rhoY_Y_O2, Initial residual = 0, Final residual = 0, No Iterations 0
diagonal:  Solving for rhoUx, Initial residual = 0, Final residual = 0, No Iterations 0
smoothSolver:  Solving for Ux, Initial residual = 6.14396e-09, Final residual = 4.23552e-17, No Iterations 2
diagonal:  Solving for rhoE, Initial residual = 0, Final residual = 0, No Iterations 0
smoothSolver:  Solving for h, Initial residual = 3.64566e-08, Final residual = 3.01182e-17, No Iterations 2
Sanity check: max(|rhoCont - rhoFromSpecies|) = 4.44089e-16

ExecutionTime = 0.79 s  ClockTime = 1 s

Mean and max Courant Numbers = 0.15964 0.199055
deltaT = 6.20753e-05
Time = 0.00993644

diagonal:  Solving for rhoCont, Initial residual = 0, Final residual = 0, No Iterations 0
diagonal:  Solving for rhoY_Y_N2, Initial residual = 0, Final residual = 0, No Iterations 0
diagonal:  Solving for rhoY_Y_O2, Initial residual = 0, Final residual = 0, No Iterations 0
diagonal:  Solving for rhoUx, Initial residual = 0, Final residual = 0, No Iterations 0
smoothSolver:  Solving for Ux, Initial residual = 5.92728e-09, Final residual = 4.36182e-17, No Iterations 2
diagonal:  Solving for rhoE, Initial residual = 0, Final residual = 0, No Iterations 0
smoothSolver:  Solving for h, Initial residual = 3.71139e-08, Final residual = 3.03431e-17, No Iterations 2
Sanity check: max(|rhoCont - rhoFromSpecies|) = 4.44089e-16

ExecutionTime = 0.84 s  ClockTime = 1 s

Mean and max Courant Numbers = 0.160752 0.198086
deltaT = 6.2675e-05
Time = 0.00999912

diagonal:  Solving for rhoCont, Initial residual = 0, Final residual = 0, No Iterations 0
diagonal:  Solving for rhoY_Y_N2, Initial residual = 0, Final residual = 0, No Iterations 0
diagonal:  Solving for rhoY_Y_O2, Initial residual = 0, Final residual = 0, No Iterations 0
diagonal:  Solving for rhoUx, Initial residual = 0, Final residual = 0, No Iterations 0
smoothSolver:  Solving for Ux, Initial residual = 5.12189e-09, Final residual = 4.27992e-17, No Iterations 2
diagonal:  Solving for rhoE, Initial residual = 0, Final residual = 0, No Iterations 0
smoothSolver:  Solving for h, Initial residual = 3.69739e-08, Final residual = 3.25993e-17, No Iterations 2
Sanity check: max(|rhoCont - rhoFromSpecies|) = 4.996e-16

ExecutionTime = 0.9 s  ClockTime = 1 s

Mean and max Courant Numbers = 0.162654 0.2027
deltaT = 6.184e-05
Time = 0.010061

diagonal:  Solving for rhoCont, Initial residual = 0, Final residual = 0, No Iterations 0
diagonal:  Solving for rhoY_Y_N2, Initial residual = 0, Final residual = 0, No Iterations 0
diagonal:  Solving for rhoY_Y_O2, Initial residual = 0, Final residual = 0, No Iterations 0
diagonal:  Solving for rhoUx, Initial residual = 0, Final residual = 0, No Iterations 0
smoothSolver:  Solving for Ux, Initial residual = 5.7445e-09, Final residual = 4.20215e-17, No Iterations 2
diagonal:  Solving for rhoE, Initial residual = 0, Final residual = 0, No Iterations 0
smoothSolver:  Solving for h, Initial residual = 3.74426e-08, Final residual = 3.04824e-17, No Iterations 2
Sanity check: max(|rhoCont - rhoFromSpecies|) = 4.44089e-16

ExecutionTime = 0.95 s  ClockTime = 1 s

Mean and max Courant Numbers = 0.160854 0.199756
deltaT = 6.19156e-05
Time = 0.0101229

diagonal:  Solving for rhoCont, Initial residual = 0, Final residual = 0, No Iterations 0
diagonal:  Solving for rhoY_Y_N2, Initial residual = 0, Final residual = 0, No Iterations 0
diagonal:  Solving for rhoY_Y_O2, Initial residual = 0, Final residual = 0, No Iterations 0
diagonal:  Solving for rhoUx, Initial residual = 0, Final residual = 0, No Iterations 0
smoothSolver:  Solving for Ux, Initial residual = 5.19422e-09, Final residual = 3.76506e-17, No Iterations 2
diagonal:  Solving for rhoE, Initial residual = 0, Final residual = 0, No Iterations 0
smoothSolver:  Solving for h, Initial residual = 3.84786e-08, Final residual = 3.24217e-17, No Iterations 2
Sanity check: max(|rhoCont - rhoFromSpecies|) = 4.996e-16

ExecutionTime = 1.01 s  ClockTime = 1 s

Mean and max Courant Numbers = 0.161289 0.19754
deltaT = 6.26868e-05
Time = 0.0101856

diagonal:  Solving for rhoCont, Initial residual = 0, Final residual = 0, No Iterations 0
diagonal:  Solving for rhoY_Y_N2, Initial residual = 0, Final residual = 0, No Iterations 0
diagonal:  Solving for rhoY_Y_O2, Initial residual = 0, Final residual = 0, No Iterations 0
diagonal:  Solving for rhoUx, Initial residual = 0, Final residual = 0, No Iterations 0
smoothSolver:  Solving for Ux, Initial residual = 4.57422e-09, Final residual = 4.45065e-17, No Iterations 2
diagonal:  Solving for rhoE, Initial residual = 0, Final residual = 0, No Iterations 0
smoothSolver:  Solving for h, Initial residual = 3.78588e-08, Final residual = 3.22054e-17, No Iterations 2
Sanity check: max(|rhoCont - rhoFromSpecies|) = 5.55112e-16

ExecutionTime = 1.07 s  ClockTime = 1 s

Mean and max Courant Numbers = 0.163432 0.198563
deltaT = 6.31405e-05
Time = 0.0102487

diagonal:  Solving for rhoCont, Initial residual = 0, Final residual = 0, No Iterations 0
diagonal:  Solving for rhoY_Y_N2, Initial residual = 0, Final residual = 0, No Iterations 0
diagonal:  Solving for rhoY_Y_O2, Initial residual = 0, Final residual = 0, No Iterations 0
diagonal:  Solving for rhoUx, Initial residual = 0, Final residual = 0, No Iterations 0
smoothSolver:  Solving for Ux, Initial residual = 6.15463e-09, Final residual = 4.69615e-17, No Iterations 2
diagonal:  Solving for rhoE, Initial residual = 0, Final residual = 0, No Iterations 0
smoothSolver:  Solving for h, Initial residual = 3.56498e-08, Final residual = 3.59178e-17, No Iterations 2
Sanity check: max(|rhoCont - rhoFromSpecies|) = 5.55112e-16

ExecutionTime = 1.13 s  ClockTime = 1 s

Mean and max Courant Numbers = 0.16475 0.20073
deltaT = 6.29108e-05
Time = 0.0103116

diagonal:  Solving for rhoCont, Initial residual = 0, Final residual = 0, No Iterations 0
diagonal:  Solving for rhoY_Y_N2, Initial residual = 0, Final residual = 0, No Iterations 0
diagonal:  Solving for rhoY_Y_O2, Initial residual = 0, Final residual = 0, No Iterations 0
diagonal:  Solving for rhoUx, Initial residual = 0, Final residual = 0, No Iterations 0
smoothSolver:  Solving for Ux, Initial residual = 7.31651e-09, Final residual = 4.91347e-17, No Iterations 2
diagonal:  Solving for rhoE, Initial residual = 0, Final residual = 0, No Iterations 0
smoothSolver:  Solving for h, Initial residual = 3.37026e-08, Final residual = 2.82982e-17, No Iterations 2
Sanity check: max(|rhoCont - rhoFromSpecies|) = 5.55112e-16

ExecutionTime = 1.19 s  ClockTime = 1 s

Mean and max Courant Numbers = 0.164329 0.203422
deltaT = 6.18526e-05
Time = 0.0103735

diagonal:  Solving for rhoCont, Initial residual = 0, Final residual = 0, No Iterations 0
diagonal:  Solving for rhoY_Y_N2, Initial residual = 0, Final residual = 0, No Iterations 0
diagonal:  Solving for rhoY_Y_O2, Initial residual = 0, Final residual = 0, No Iterations 0
diagonal:  Solving for rhoUx, Initial residual = 0, Final residual = 0, No Iterations 0
smoothSolver:  Solving for Ux, Initial residual = 7.81378e-09, Final residual = 4.73441e-17, No Iterations 2
diagonal:  Solving for rhoE, Initial residual = 0, Final residual = 0, No Iterations 0
smoothSolver:  Solving for h, Initial residual = 3.39408e-08, Final residual = 2.87846e-17, No Iterations 2
Sanity check: max(|rhoCont - rhoFromSpecies|) = 6.10623e-16

ExecutionTime = 1.25 s  ClockTime = 2 s

Mean and max Courant Numbers = 0.161696 0.202024
deltaT = 6.12328e-05
Time = 0.0104347

diagonal:  Solving for rhoCont, Initial residual = 0, Final residual = 0, No Iterations 0
diagonal:  Solving for rhoY_Y_N2, Initial residual = 0, Final residual = 0, No Iterations 0
diagonal:  Solving for rhoY_Y_O2, Initial residual = 0, Final residual = 0, No Iterations 0
diagonal:  Solving for rhoUx, Initial residual = 0, Final residual = 0, No Iterations 0
smoothSolver:  Solving for Ux, Initial residual = 8.09184e-09, Final residual = 4.57469e-17, No Iterations 2
diagonal:  Solving for rhoE, Initial residual = 0, Final residual = 0, No Iterations 0
smoothSolver:  Solving for h, Initial residual = 3.51443e-08, Final residual = 2.66171e-17, No Iterations 2
Sanity check: max(|rhoCont - rhoFromSpecies|) = 6.10623e-16

ExecutionTime = 1.3 s  ClockTime = 2 s

Mean and max Courant Numbers = 0.160194 0.202649
deltaT = 6.04324e-05
Time = 0.0104951

diagonal:  Solving for rhoCont, Initial residual = 0, Final residual = 0, No Iterations 0
diagonal:  Solving for rhoY_Y_N2, Initial residual = 0, Final residual = 0, No Iterations 0
diagonal:  Solving for rhoY_Y_O2, Initial residual = 0, Final residual = 0, No Iterations 0
diagonal:  Solving for rhoUx, Initial residual = 0, Final residual = 0, No Iterations 0
smoothSolver:  Solving for Ux, Initial residual = 8.10018e-09, Final residual = 4.20242e-17, No Iterations 2
diagonal:  Solving for rhoE, Initial residual = 0, Final residual = 0, No Iterations 0
smoothSolver:  Solving for h, Initial residual = 3.68118e-08, Final residual = 3.48469e-17, No Iterations 2
Sanity check: max(|rhoCont - rhoFromSpecies|) = 6.10623e-16

ExecutionTime = 1.36 s  ClockTime = 2 s

Mean and max Courant Numbers = 0.158096 0.197077
deltaT = 6.13288e-05
Time = 0.0105565

diagonal:  Solving for rhoCont, Initial residual = 0, Final residual = 0, No Iterations 0
diagonal:  Solving for rhoY_Y_N2, Initial residual = 0, Final residual = 0, No Iterations 0
diagonal:  Solving for rhoY_Y_O2, Initial residual = 0, Final residual = 0, No Iterations 0
diagonal:  Solving for rhoUx, Initial residual = 0, Final residual = 0, No Iterations 0
smoothSolver:  Solving for Ux, Initial residual = 8.24487e-09, Final residual = 5.06269e-17, No Iterations 2
diagonal:  Solving for rhoE, Initial residual = 0, Final residual = 0, No Iterations 0
smoothSolver:  Solving for h, Initial residual = 3.9864e-08, Final residual = 3.32055e-17, No Iterations 2
Sanity check: max(|rhoCont - rhoFromSpecies|) = 6.10623e-16

ExecutionTime = 1.41 s  ClockTime = 2 s

Mean and max Courant Numbers = 0.160386 0.194308
deltaT = 6.31252e-05
Time = 0.0106196

diagonal:  Solving for rhoCont, Initial residual = 0, Final residual = 0, No Iterations 0
diagonal:  Solving for rhoY_Y_N2, Initial residual = 0, Final residual = 0, No Iterations 0
diagonal:  Solving for rhoY_Y_O2, Initial residual = 0, Final residual = 0, No Iterations 0
diagonal:  Solving for rhoUx, Initial residual = 0, Final residual = 0, No Iterations 0
smoothSolver:  Solving for Ux, Initial residual = 8.24929e-09, Final residual = 4.74772e-17, No Iterations 2
diagonal:  Solving for rhoE, Initial residual = 0, Final residual = 0, No Iterations 0
--> FOAM Warning : 
    From Foam::scalar Foam::janaf2TThermo<EquationOfState>::limit(Foam::scalar) const [with EquationOfState = Foam::perfect2TGas<Foam::specie2T>; Foam::scalar = double]
    in file ../specie/lnInclude/janaf2TThermoI.H at line 135
    attempt to use janaf2TThermo<EquationOfState> out of temperature range 200 -> 20000;  TTR = 199.972
--> FOAM Warning : 
    From Foam::scalar Foam::janaf2TThermo<EquationOfState>::limit(Foam::scalar) const [with EquationOfState = Foam::perfect2TGas<Foam::specie2T>; Foam::scalar = double]
    in file ../specie/lnInclude/janaf2TThermoI.H at line 135
    attempt to use janaf2TThermo<EquationOfState> out of temperature range 200 -> 20000;  TTR = 199.972
smoothSolver:  Solving for h, Initial residual = 4.26217e-08, Final residual = 3.06317e-17, No Iterations 2
--> FOAM Warning : 
    From Foam::scalar Foam::janaf2TThermo<EquationOfState>::limit(Foam::scalar) const [with EquationOfState = Foam::perfect2TGas<Foam::specie2T>; Foam::scalar = double]
    in file ../specie/lnInclude/janaf2TThermoI.H at line 135
    attempt to use janaf2TThermo<EquationOfState> out of temperature range 200 -> 20000;  TTR = 199.972
Sanity check: max(|rhoCont - rhoFromSpecies|) = 6.10623e-16

ExecutionTime = 1.47 s  ClockTime = 2 s

Mean and max Courant Numbers = 0.165082 0.19751
deltaT = 6.3921e-05
Time = 0.0106835

diagonal:  Solving for rhoCont, Initial residual = 0, Final residual = 0, No Iterations 0
diagonal:  Solving for rhoY_Y_N2, Initial residual = 0, Final residual = 0, No Iterations 0
diagonal:  Solving for rhoY_Y_O2, Initial residual = 0, Final residual = 0, No Iterations 0
diagonal:  Solving for rhoUx, Initial residual = 0, Final residual = 0, No Iterations 0
smoothSolver:  Solving for Ux, Initial residual = 7.94564e-09, Final residual = 4.1398e-17, No Iterations 2
diagonal:  Solving for rhoE, Initial residual = 0, Final residual = 0, No Iterations 0
--> FOAM Warning : 
    From Foam::scalar Foam::janaf2TThermo<EquationOfState>::limit(Foam::scalar) const [with EquationOfState = Foam::perfect2TGas<Foam::specie2T>; Foam::scalar = double]
    in file ../specie/lnInclude/janaf2TThermoI.H at line 135
    attempt to use janaf2TThermo<EquationOfState> out of temperature range 200 -> 20000;  TTR = 199.593
smoothSolver:  Solving for h, Initial residual = 4.42524e-08, Final residual = 3.42792e-17, No Iterations 2
--> FOAM Warning : 
    From Foam::scalar Foam::janaf2TThermo<EquationOfState>::limit(Foam::scalar) const [with EquationOfState = Foam::perfect2TGas<Foam::specie2T>; Foam::scalar = double]
    in file ../specie/lnInclude/janaf2TThermoI.H at line 135
    attempt to use janaf2TThermo<EquationOfState> out of temperature range 200 -> 20000;  TTR = 199.593
Sanity check: max(|rhoCont - rhoFromSpecies|) = 4.996e-16

ExecutionTime = 1.53 s  ClockTime = 2 s

Mean and max Courant Numbers = 0.167232 0.199968
deltaT = 6.39312e-05
Time = 0.0107474

diagonal:  Solving for rhoCont, Initial residual = 0, Final residual = 0, No Iterations 0
diagonal:  Solving for rhoY_Y_N2, Initial residual = 0, Final residual = 0, No Iterations 0
diagonal:  Solving for rhoY_Y_O2, Initial residual = 0, Final residual = 0, No Iterations 0
diagonal:  Solving for rhoUx, Initial residual = 0, Final residual = 0, No Iterations 0
smoothSolver:  Solving for Ux, Initial residual = 7.45193e-09, Final residual = 4.95377e-17, No Iterations 2
diagonal:  Solving for rhoE, Initial residual = 0, Final residual = 0, No Iterations 0
--> FOAM Warning : 
    From Foam::scalar Foam::janaf2TThermo<EquationOfState>::limit(Foam::scalar) const [with EquationOfState = Foam::perfect2TGas<Foam::specie2T>; Foam::scalar = double]
    in file ../specie/lnInclude/janaf2TThermoI.H at line 135
    attempt to use janaf2TThermo<EquationOfState> out of temperature range 200 -> 20000;  TTR = 199.729
smoothSolver:  Solving for h, Initial residual = 4.54722e-08, Final residual = 3.40368e-17, No Iterations 2
--> FOAM Warning : 
    From Foam::scalar Foam::janaf2TThermo<EquationOfState>::limit(Foam::scalar) const [with EquationOfState = Foam::perfect2TGas<Foam::specie2T>; Foam::scalar = double]
    in file ../specie/lnInclude/janaf2TThermoI.H at line 135
    attempt to use janaf2TThermo<EquationOfState> out of temperature range 200 -> 20000;  TTR = 199.729
Sanity check: max(|rhoCont - rhoFromSpecies|) = 4.996e-16

ExecutionTime = 1.59 s  ClockTime = 2 s

Mean and max Courant Numbers = 0.167347 0.201774
deltaT = 6.3369e-05
Time = 0.0108108

diagonal:  Solving for rhoCont, Initial residual = 0, Final residual = 0, No Iterations 0
diagonal:  Solving for rhoY_Y_N2, Initial residual = 0, Final residual = 0, No Iterations 0
diagonal:  Solving for rhoY_Y_O2, Initial residual = 0, Final residual = 0, No Iterations 0
diagonal:  Solving for rhoUx, Initial residual = 0, Final residual = 0, No Iterations 0
smoothSolver:  Solving for Ux, Initial residual = 6.8473e-09, Final residual = 4.16151e-17, No Iterations 2
diagonal:  Solving for rhoE, Initial residual = 0, Final residual = 0, No Iterations 0
smoothSolver:  Solving for h, Initial residual = 4.62884e-08, Final residual = 3.2518e-17, No Iterations 2
Sanity check: max(|rhoCont - rhoFromSpecies|) = 5.55112e-16

ExecutionTime = 1.66 s  ClockTime = 2 s

Mean and max Courant Numbers = 0.165913 0.201662
deltaT = 6.28468e-05
Time = 0.0108737

diagonal:  Solving for rhoCont, Initial residual = 0, Final residual = 0, No Iterations 0
diagonal:  Solving for rhoY_Y_N2, Initial residual = 0, Final residual = 0, No Iterations 0
diagonal:  Solving for rhoY_Y_O2, Initial residual = 0, Final residual = 0, No Iterations 0
diagonal:  Solving for rhoUx, Initial residual = 0, Final residual = 0, No Iterations 0
smoothSolver:  Solving for Ux, Initial residual = 6.92567e-09, Final residual = 4.64912e-17, No Iterations 2
diagonal:  Solving for rhoE, Initial residual = 0, Final residual = 0, No Iterations 0
smoothSolver:  Solving for h, Initial residual = 4.61685e-08, Final residual = 2.76317e-17, No Iterations 2
Sanity check: max(|rhoCont - rhoFromSpecies|) = 5.55112e-16

ExecutionTime = 1.72 s  ClockTime = 2 s

Mean and max Courant Numbers = 0.164568 0.201853
deltaT = 6.22698e-05
Time = 0.0109359

diagonal:  Solving for rhoCont, Initial residual = 0, Final residual = 0, No Iterations 0
diagonal:  Solving for rhoY_Y_N2, Initial residual = 0, Final residual = 0, No Iterations 0
diagonal:  Solving for rhoY_Y_O2, Initial residual = 0, Final residual = 0, No Iterations 0
diagonal:  Solving for rhoUx, Initial residual = 0, Final residual = 0, No Iterations 0
smoothSolver:  Solving for Ux, Initial residual = 7.13981e-09, Final residual = 4.62442e-17, No Iterations 2
diagonal:  Solving for rhoE, Initial residual = 0, Final residual = 0, No Iterations 0
--> FOAM Warning : 
    From Foam::scalar Foam::janaf2TThermo<EquationOfState>::limit(Foam::scalar) const [with EquationOfState = Foam::perfect2TGas<Foam::specie2T>; Foam::scalar = double]
    in file ../specie/lnInclude/janaf2TThermoI.H at line 135
    attempt to use janaf2TThermo<EquationOfState> out of temperature range 200 -> 20000;  TTR = 199.991
--> FOAM Warning : 
    From Foam::scalar Foam::janaf2TThermo<EquationOfState>::limit(Foam::scalar) const [with EquationOfState = Foam::perfect2TGas<Foam::specie2T>; Foam::scalar = double]
    in file ../specie/lnInclude/janaf2TThermoI.H at line 135
    attempt to use janaf2TThermo<EquationOfState> out of temperature range 200 -> 20000;  TTR = 199.991
smoothSolver:  Solving for h, Initial residual = 4.61706e-08, Final residual = 3.07441e-17, No Iterations 2
--> FOAM Warning : 
    From Foam::scalar Foam::janaf2TThermo<EquationOfState>::limit(Foam::scalar) const [with EquationOfState = Foam::perfect2TGas<Foam::specie2T>; Foam::scalar = double]
    in file ../specie/lnInclude/janaf2TThermoI.H at line 135
    attempt to use janaf2TThermo<EquationOfState> out of temperature range 200 -> 20000;  TTR = 199.991
Sanity check: max(|rhoCont - rhoFromSpecies|) = 6.66134e-16

ExecutionTime = 1.79 s  ClockTime = 2 s

Mean and max Courant Numbers = 0.163048 0.201993
deltaT = 6.16555e-05
Time = 0.0109976

diagonal:  Solving for rhoCont, Initial residual = 0, Final residual = 0, No Iterations 0
diagonal:  Solving for rhoY_Y_N2, Initial residual = 0, Final residual = 0, No Iterations 0
diagonal:  Solving for rhoY_Y_O2, Initial residual = 0, Final residual = 0, No Iterations 0
diagonal:  Solving for rhoUx, Initial residual = 0, Final residual = 0, No Iterations 0
smoothSolver:  Solving for Ux, Initial residual = 7.31395e-09, Final residual = 5.5425e-17, No Iterations 2
diagonal:  Solving for rhoE, Initial residual = 0, Final residual = 0, No Iterations 0
--> FOAM Warning : 
    From Foam::scalar Foam::janaf2TThermo<EquationOfState>::limit(Foam::scalar) const [with EquationOfState = Foam::perfect2TGas<Foam::specie2T>; Foam::scalar = double]
    in file ../specie/lnInclude/janaf2TThermoI.H at line 135
    attempt to use janaf2TThermo<EquationOfState> out of temperature range 200 -> 20000;  TTR = 199.281
smoothSolver:  Solving for h, Initial residual = 4.6046e-08, Final residual = 3.2659e-17, No Iterations 2
--> FOAM Warning : 
    From Foam::scalar Foam::janaf2TThermo<EquationOfState>::limit(Foam::scalar) const [with EquationOfState = Foam::perfect2TGas<Foam::specie2T>; Foam::scalar = double]
    in file ../specie/lnInclude/janaf2TThermoI.H at line 135
    attempt to use janaf2TThermo<EquationOfState> out of temperature range 200 -> 20000;  TTR = 199.281
Sanity check: max(|rhoCont - rhoFromSpecies|) = 6.66134e-16

ExecutionTime = 1.85 s  ClockTime = 2 s

Mean and max Courant Numbers = 0.161436 0.200857
deltaT = 6.13924e-05
Time = 0.011059

diagonal:  Solving for rhoCont, Initial residual = 0, Final residual = 0, No Iterations 0
diagonal:  Solving for rhoY_Y_N2, Initial residual = 0, Final residual = 0, No Iterations 0
diagonal:  Solving for rhoY_Y_O2, Initial residual = 0, Final residual = 0, No Iterations 0
diagonal:  Solving for rhoUx, Initial residual = 0, Final residual = 0, No Iterations 0
smoothSolver:  Solving for Ux, Initial residual = 7.36966e-09, Final residual = 4.75692e-17, No Iterations 2
diagonal:  Solving for rhoE, Initial residual = 0, Final residual = 0, No Iterations 0
--> FOAM Warning : 
    From Foam::scalar Foam::janaf2TThermo<EquationOfState>::limit(Foam::scalar) const [with EquationOfState = Foam::perfect2TGas<Foam::specie2T>; Foam::scalar = double]
    in file ../specie/lnInclude/janaf2TThermoI.H at line 135
    attempt to use janaf2TThermo<EquationOfState> out of temperature range 200 -> 20000;  TTR = 198.884
smoothSolver:  Solving for h, Initial residual = 4.54512e-08, Final residual = 3.22185e-17, No Iterations 2
--> FOAM Warning : 
    From Foam::scalar Foam::janaf2TThermo<EquationOfState>::limit(Foam::scalar) const [with EquationOfState = Foam::perfect2TGas<Foam::specie2T>; Foam::scalar = double]
    in file ../specie/lnInclude/janaf2TThermoI.H at line 135
    attempt to use janaf2TThermo<EquationOfState> out of temperature range 200 -> 20000;  TTR = 198.884
Sanity check: max(|rhoCont - rhoFromSpecies|) = 6.66134e-16

ExecutionTime = 1.91 s  ClockTime = 2 s

Mean and max Courant Numbers = 0.160748 0.199446
deltaT = 6.15629e-05
Time = 0.0111205

diagonal:  Solving for rhoCont, Initial residual = 0, Final residual = 0, No Iterations 0
diagonal:  Solving for rhoY_Y_N2, Initial residual = 0, Final residual = 0, No Iterations 0
diagonal:  Solving for rhoY_Y_O2, Initial residual = 0, Final residual = 0, No Iterations 0
diagonal:  Solving for rhoUx, Initial residual = 0, Final residual = 0, No Iterations 0
smoothSolver:  Solving for Ux, Initial residual = 7.37179e-09, Final residual = 3.59019e-17, No Iterations 2
diagonal:  Solving for rhoE, Initial residual = 0, Final residual = 0, No Iterations 0
--> FOAM Warning : 
    From Foam::scalar Foam::janaf2TThermo<EquationOfState>::limit(Foam::scalar) const [with EquationOfState = Foam::perfect2TGas<Foam::specie2T>; Foam::scalar = double]
    in file ../specie/lnInclude/janaf2TThermoI.H at line 135
    attempt to use janaf2TThermo<EquationOfState> out of temperature range 200 -> 20000;  TTR = 198.948
smoothSolver:  Solving for h, Initial residual = 4.57662e-08, Final residual = 3.12016e-17, No Iterations 2
--> FOAM Warning : 
    From Foam::scalar Foam::janaf2TThermo<EquationOfState>::limit(Foam::scalar) const [with EquationOfState = Foam::perfect2TGas<Foam::specie2T>; Foam::scalar = double]
    in file ../specie/lnInclude/janaf2TThermoI.H at line 135
    attempt to use janaf2TThermo<EquationOfState> out of temperature range 200 -> 20000;  TTR = 198.948
Sanity check: max(|rhoCont - rhoFromSpecies|) = 6.66134e-16

ExecutionTime = 1.96 s  ClockTime = 2 s

Mean and max Courant Numbers = 0.16118 0.197863
deltaT = 6.22279e-05
Time = 0.0111828

diagonal:  Solving for rhoCont, Initial residual = 0, Final residual = 0, No Iterations 0
diagonal:  Solving for rhoY_Y_N2, Initial residual = 0, Final residual = 0, No Iterations 0
diagonal:  Solving for rhoY_Y_O2, Initial residual = 0, Final residual = 0, No Iterations 0
diagonal:  Solving for rhoUx, Initial residual = 0, Final residual = 0, No Iterations 0
smoothSolver:  Solving for Ux, Initial residual = 7.32735e-09, Final residual = 4.28795e-17, No Iterations 2
diagonal:  Solving for rhoE, Initial residual = 0, Final residual = 0, No Iterations 0
--> FOAM Warning : 
    From Foam::scalar Foam::janaf2TThermo<EquationOfState>::limit(Foam::scalar) const [with EquationOfState = Foam::perfect2TGas<Foam::specie2T>; Foam::scalar = double]
    in file ../specie/lnInclude/janaf2TThermoI.H at line 135
    attempt to use janaf2TThermo<EquationOfState> out of temperature range 200 -> 20000;  TTR = 199.533
smoothSolver:  Solving for h, Initial residual = 4.68411e-08, Final residual = 3.53545e-17, No Iterations 2
--> FOAM Warning : 
    From Foam::scalar Foam::janaf2TThermo<EquationOfState>::limit(Foam::scalar) const [with EquationOfState = Foam::perfect2TGas<Foam::specie2T>; Foam::scalar = double]
    in file ../specie/lnInclude/janaf2TThermoI.H at line 135
    attempt to use janaf2TThermo<EquationOfState> out of temperature range 200 -> 20000;  TTR = 199.533
Sanity check: max(|rhoCont - rhoFromSpecies|) = 6.66134e-16

ExecutionTime = 2.02 s  ClockTime = 2 s

Mean and max Courant Numbers = 0.162899 0.19651
deltaT = 6.33331e-05
Time = 0.0112461

diagonal:  Solving for rhoCont, Initial residual = 0, Final residual = 0, No Iterations 0
diagonal:  Solving for rhoY_Y_N2, Initial residual = 0, Final residual = 0, No Iterations 0
diagonal:  Solving for rhoY_Y_O2, Initial residual = 0, Final residual = 0, No Iterations 0
diagonal:  Solving for rhoUx, Initial residual = 0, Final residual = 0, No Iterations 0
smoothSolver:  Solving for Ux, Initial residual = 7.27528e-09, Final residual = 4.71096e-17, No Iterations 2
diagonal:  Solving for rhoE, Initial residual = 0, Final residual = 0, No Iterations 0
smoothSolver:  Solving for h, Initial residual = 4.93086e-08, Final residual = 3.37112e-17, No Iterations 2
Sanity check: max(|rhoCont - rhoFromSpecies|) = 6.66134e-16

ExecutionTime = 2.08 s  ClockTime = 2 s

Mean and max Courant Numbers = 0.165733 0.199861
deltaT = 6.33771e-05
Time = 0.0113095

diagonal:  Solving for rhoCont, Initial residual = 0, Final residual = 0, No Iterations 0
diagonal:  Solving for rhoY_Y_N2, Initial residual = 0, Final residual = 0, No Iterations 0
diagonal:  Solving for rhoY_Y_O2, Initial residual = 0, Final residual = 0, No Iterations 0
diagonal:  Solving for rhoUx, Initial residual = 0, Final residual = 0, No Iterations 0
smoothSolver:  Solving for Ux, Initial residual = 6.94114e-09, Final residual = 4.18289e-17, No Iterations 2
diagonal:  Solving for rhoE, Initial residual = 0, Final residual = 0, No Iterations 0
--> FOAM Warning : 
    From Foam::scalar Foam::janaf2TThermo<EquationOfState>::limit(Foam::scalar) const [with EquationOfState = Foam::perfect2TGas<Foam::specie2T>; Foam::scalar = double]
    in file ../specie/lnInclude/janaf2TThermoI.H at line 135
    attempt to use janaf2TThermo<EquationOfState> out of temperature range 200 -> 20000;  TTR = 199.342
--> FOAM Warning : 
    From Foam::scalar Foam::janaf2TThermo<EquationOfState>::limit(Foam::scalar) const [with EquationOfState = Foam::perfect2TGas<Foam::specie2T>; Foam::scalar = double]
    in file ../specie/lnInclude/janaf2TThermoI.H at line 135
    attempt to use janaf2TThermo<EquationOfState> out of temperature range 200 -> 20000;  TTR = 199.342
smoothSolver:  Solving for h, Initial residual = 5.10329e-08, Final residual = 3.27855e-17, No Iterations 2
--> FOAM Warning : 
    From Foam::scalar Foam::janaf2TThermo<EquationOfState>::limit(Foam::scalar) const [with EquationOfState = Foam::perfect2TGas<Foam::specie2T>; Foam::scalar = double]
    in file ../specie/lnInclude/janaf2TThermoI.H at line 135
    attempt to use janaf2TThermo<EquationOfState> out of temperature range 200 -> 20000;  TTR = 199.342
Sanity check: max(|rhoCont - rhoFromSpecies|) = 7.77156e-16

ExecutionTime = 2.16 s  ClockTime = 2 s

Mean and max Courant Numbers = 0.165777 0.200996
deltaT = 6.30631e-05
Time = 0.0113725

diagonal:  Solving for rhoCont, Initial residual = 0, Final residual = 0, No Iterations 0
diagonal:  Solving for rhoY_Y_N2, Initial residual = 0, Final residual = 0, No Iterations 0
diagonal:  Solving for rhoY_Y_O2, Initial residual = 0, Final residual = 0, No Iterations 0
diagonal:  Solving for rhoUx, Initial residual = 0, Final residual = 0, No Iterations 0
smoothSolver:  Solving for Ux, Initial residual = 6.43613e-09, Final residual = 4.68427e-17, No Iterations 2
diagonal:  Solving for rhoE, Initial residual = 0, Final residual = 0, No Iterations 0
--> FOAM Warning : 
    From Foam::scalar Foam::janaf2TThermo<EquationOfState>::limit(Foam::scalar) const [with EquationOfState = Foam::perfect2TGas<Foam::specie2T>; Foam::scalar = double]
    in file ../specie/lnInclude/janaf2TThermoI.H at line 135
    attempt to use janaf2TThermo<EquationOfState> out of temperature range 200 -> 20000;  TTR = 198.585
smoothSolver:  Solving for h, Initial residual = 5.31923e-08, Final residual = 2.99934e-17, No Iterations 2
--> FOAM Warning : 
    From Foam::scalar Foam::janaf2TThermo<EquationOfState>::limit(Foam::scalar) const [with EquationOfState = Foam::perfect2TGas<Foam::specie2T>; Foam::scalar = double]
    in file ../specie/lnInclude/janaf2TThermoI.H at line 135
    attempt to use janaf2TThermo<EquationOfState> out of temperature range 200 -> 20000;  TTR = 198.585
Sanity check: max(|rhoCont - rhoFromSpecies|) = 8.88178e-16

ExecutionTime = 2.24 s  ClockTime = 3 s

Mean and max Courant Numbers = 0.164869 0.200794
deltaT = 6.28136e-05
Time = 0.0114353

diagonal:  Solving for rhoCont, Initial residual = 0, Final residual = 0, No Iterations 0
diagonal:  Solving for rhoY_Y_N2, Initial residual = 0, Final residual = 0, No Iterations 0
diagonal:  Solving for rhoY_Y_O2, Initial residual = 0, Final residual = 0, No Iterations 0
diagonal:  Solving for rhoUx, Initial residual = 0, Final residual = 0, No Iterations 0
smoothSolver:  Solving for Ux, Initial residual = 6.29923e-09, Final residual = 4.04732e-17, No Iterations 2
diagonal:  Solving for rhoE, Initial residual = 0, Final residual = 0, No Iterations 0
--> FOAM Warning : 
    From Foam::scalar Foam::janaf2TThermo<EquationOfState>::limit(Foam::scalar) const [with EquationOfState = Foam::perfect2TGas<Foam::specie2T>; Foam::scalar = double]
    in file ../specie/lnInclude/janaf2TThermoI.H at line 135
    attempt to use janaf2TThermo<EquationOfState> out of temperature range 200 -> 20000;  TTR = 198.134
smoothSolver:  Solving for h, Initial residual = 5.57925e-08, Final residual = 3.6115e-17, No Iterations 2
--> FOAM Warning : 
    From Foam::scalar Foam::janaf2TThermo<EquationOfState>::limit(Foam::scalar) const [with EquationOfState = Foam::perfect2TGas<Foam::specie2T>; Foam::scalar = double]
    in file ../specie/lnInclude/janaf2TThermoI.H at line 135
    attempt to use janaf2TThermo<EquationOfState> out of temperature range 200 -> 20000;  TTR = 198.134
Sanity check: max(|rhoCont - rhoFromSpecies|) = 8.88178e-16

ExecutionTime = 2.3 s  ClockTime = 3 s

Mean and max Courant Numbers = 0.164196 0.200208
deltaT = 6.27484e-05
Time = 0.0114981

diagonal:  Solving for rhoCont, Initial residual = 0, Final residual = 0, No Iterations 0
diagonal:  Solving for rhoY_Y_N2, Initial residual = 0, Final residual = 0, No Iterations 0
diagonal:  Solving for rhoY_Y_O2, Initial residual = 0, Final residual = 0, No Iterations 0
diagonal:  Solving for rhoUx, Initial residual = 0, Final residual = 0, No Iterations 0
smoothSolver:  Solving for Ux, Initial residual = 6.9655e-09, Final residual = 4.64658e-17, No Iterations 2
diagonal:  Solving for rhoE, Initial residual = 0, Final residual = 0, No Iterations 0
--> FOAM Warning : 
    From Foam::scalar Foam::janaf2TThermo<EquationOfState>::limit(Foam::scalar) const [with EquationOfState = Foam::perfect2TGas<Foam::specie2T>; Foam::scalar = double]
    in file ../specie/lnInclude/janaf2TThermoI.H at line 135
    attempt to use janaf2TThermo<EquationOfState> out of temperature range 200 -> 20000;  TTR = 198.145
smoothSolver:  Solving for h, Initial residual = 5.77316e-08, Final residual = 3.47082e-17, No Iterations 2
--> FOAM Warning : 
    From Foam::scalar Foam::janaf2TThermo<EquationOfState>::limit(Foam::scalar) const [with EquationOfState = Foam::perfect2TGas<Foam::specie2T>; Foam::scalar = double]
    in file ../specie/lnInclude/janaf2TThermoI.H at line 135
    attempt to use janaf2TThermo<EquationOfState> out of temperature range 200 -> 20000;  TTR = 198.145
Sanity check: max(|rhoCont - rhoFromSpecies|) = 8.88178e-16

ExecutionTime = 2.36 s  ClockTime = 3 s

Mean and max Courant Numbers = 0.164015 0.199177
deltaT = 6.30076e-05
Time = 0.0115611

diagonal:  Solving for rhoCont, Initial residual = 0, Final residual = 0, No Iterations 0
diagonal:  Solving for rhoY_Y_N2, Initial residual = 0, Final residual = 0, No Iterations 0
diagonal:  Solving for rhoY_Y_O2, Initial residual = 0, Final residual = 0, No Iterations 0
diagonal:  Solving for rhoUx, Initial residual = 0, Final residual = 0, No Iterations 0
smoothSolver:  Solving for Ux, Initial residual = 7.50211e-09, Final residual = 4.02033e-17, No Iterations 2
diagonal:  Solving for rhoE, Initial residual = 0, Final residual = 0, No Iterations 0
--> FOAM Warning : 
    From Foam::scalar Foam::janaf2TThermo<EquationOfState>::limit(Foam::scalar) const [with EquationOfState = Foam::perfect2TGas<Foam::specie2T>; Foam::scalar = double]
    in file ../specie/lnInclude/janaf2TThermoI.H at line 135
    attempt to use janaf2TThermo<EquationOfState> out of temperature range 200 -> 20000;  TTR = 198.689
smoothSolver:  Solving for h, Initial residual = 5.99209e-08, Final residual = 3.67646e-17, No Iterations 2
--> FOAM Warning : 
    From Foam::scalar Foam::janaf2TThermo<EquationOfState>::limit(Foam::scalar) const [with EquationOfState = Foam::perfect2TGas<Foam::specie2T>; Foam::scalar = double]
    in file ../specie/lnInclude/janaf2TThermoI.H at line 135
    attempt to use janaf2TThermo<EquationOfState> out of temperature range 200 -> 20000;  TTR = 198.689
Sanity check: max(|rhoCont - rhoFromSpecies|) = 1.11022e-15

ExecutionTime = 2.41 s  ClockTime = 3 s

Mean and max Courant Numbers = 0.164752 0.197791
deltaT = 6.37113e-05
Time = 0.0116248

diagonal:  Solving for rhoCont, Initial residual = 0, Final residual = 0, No Iterations 0
diagonal:  Solving for rhoY_Y_N2, Initial residual = 0, Final residual = 0, No Iterations 0
diagonal:  Solving for rhoY_Y_O2, Initial residual = 0, Final residual = 0, No Iterations 0
diagonal:  Solving for rhoUx, Initial residual = 0, Final residual = 0, No Iterations 0
smoothSolver:  Solving for Ux, Initial residual = 8.04779e-09, Final residual = 5.00941e-17, No Iterations 2
diagonal:  Solving for rhoE, Initial residual = 0, Final residual = 0, No Iterations 0
--> FOAM Warning : 
    From Foam::scalar Foam::janaf2TThermo<EquationOfState>::limit(Foam::scalar) const [with EquationOfState = Foam::perfect2TGas<Foam::specie2T>; Foam::scalar = double]
    in file ../specie/lnInclude/janaf2TThermoI.H at line 135
    attempt to use janaf2TThermo<EquationOfState> out of temperature range 200 -> 20000;  TTR = 199.765
--> FOAM Warning : 
    From Foam::scalar Foam::janaf2TThermo<EquationOfState>::limit(Foam::scalar) const [with EquationOfState = Foam::perfect2TGas<Foam::specie2T>; Foam::scalar = double]
    in file ../specie/lnInclude/janaf2TThermoI.H at line 135
    attempt to use janaf2TThermo<EquationOfState> out of temperature range 200 -> 20000;  TTR = 199.834
--> FOAM Warning : 
    From Foam::scalar Foam::janaf2TThermo<EquationOfState>::limit(Foam::scalar) const [with EquationOfState = Foam::perfect2TGas<Foam::specie2T>; Foam::scalar = double]
    in file ../specie/lnInclude/janaf2TThermoI.H at line 135
    attempt to use janaf2TThermo<EquationOfState> out of temperature range 200 -> 20000;  TTR = 199.834
smoothSolver:  Solving for h, Initial residual = 6.16207e-08, Final residual = 3.53641e-17, No Iterations 2
--> FOAM Warning : 
    From Foam::scalar Foam::janaf2TThermo<EquationOfState>::limit(Foam::scalar) const [with EquationOfState = Foam::perfect2TGas<Foam::specie2T>; Foam::scalar = double]
    in file ../specie/lnInclude/janaf2TThermoI.H at line 135
    attempt to use janaf2TThermo<EquationOfState> out of temperature range 200 -> 20000;  TTR = 199.765
--> FOAM Warning : 
    From Foam::scalar Foam::janaf2TThermo<EquationOfState>::limit(Foam::scalar) const [with EquationOfState = Foam::perfect2TGas<Foam::specie2T>; Foam::scalar = double]
    in file ../specie/lnInclude/janaf2TThermoI.H at line 135
    attempt to use janaf2TThermo<EquationOfState> out of temperature range 200 -> 20000;  TTR = 199.834
Sanity check: max(|rhoCont - rhoFromSpecies|) = 1.11022e-15

ExecutionTime = 2.48 s  ClockTime = 3 s

Mean and max Courant Numbers = 0.166632 0.200075
deltaT = 6.36873e-05
Time = 0.0116885

diagonal:  Solving for rhoCont, Initial residual = 0, Final residual = 0, No Iterations 0
diagonal:  Solving for rhoY_Y_N2, Initial residual = 0, Final residual = 0, No Iterations 0
diagonal:  Solving for rhoY_Y_O2, Initial residual = 0, Final residual = 0, No Iterations 0
diagonal:  Solving for rhoUx, Initial residual = 0, Final residual = 0, No Iterations 0
smoothSolver:  Solving for Ux, Initial residual = 8.20291e-09, Final residual = 5.42551e-17, No Iterations 2
diagonal:  Solving for rhoE, Initial residual = 0, Final residual = 0, No Iterations 0
--> FOAM Warning : 
    From Foam::scalar Foam::janaf2TThermo<EquationOfState>::limit(Foam::scalar) const [with EquationOfState = Foam::perfect2TGas<Foam::specie2T>; Foam::scalar = double]
    in file ../specie/lnInclude/janaf2TThermoI.H at line 135
    attempt to use janaf2TThermo<EquationOfState> out of temperature range 200 -> 20000;  TTR = 198.615
smoothSolver:  Solving for h, Initial residual = 6.17157e-08, Final residual = 3.48656e-17, No Iterations 2
--> FOAM Warning : 
    From Foam::scalar Foam::janaf2TThermo<EquationOfState>::limit(Foam::scalar) const [with EquationOfState = Foam::perfect2TGas<Foam::specie2T>; Foam::scalar = double]
    in file ../specie/lnInclude/janaf2TThermoI.H at line 135
    attempt to use janaf2TThermo<EquationOfState> out of temperature range 200 -> 20000;  TTR = 198.615
Sanity check: max(|rhoCont - rhoFromSpecies|) = 1.05471e-15

ExecutionTime = 2.54 s  ClockTime = 3 s

Mean and max Courant Numbers = 0.166576 0.201788
deltaT = 6.3123e-05
Time = 0.0117516

diagonal:  Solving for rhoCont, Initial residual = 0, Final residual = 0, No Iterations 0
diagonal:  Solving for rhoY_Y_N2, Initial residual = 0, Final residual = 0, No Iterations 0
diagonal:  Solving for rhoY_Y_O2, Initial residual = 0, Final residual = 0, No Iterations 0
diagonal:  Solving for rhoUx, Initial residual = 0, Final residual = 0, No Iterations 0
smoothSolver:  Solving for Ux, Initial residual = 8.03012e-09, Final residual = 4.74878e-17, No Iterations 2
diagonal:  Solving for rhoE, Initial residual = 0, Final residual = 0, No Iterations 0
--> FOAM Warning : 
    From Foam::scalar Foam::janaf2TThermo<EquationOfState>::limit(Foam::scalar) const [with EquationOfState = Foam::perfect2TGas<Foam::specie2T>; Foam::scalar = double]
    in file ../specie/lnInclude/janaf2TThermoI.H at line 135
    attempt to use janaf2TThermo<EquationOfState> out of temperature range 200 -> 20000;  TTR = 197.833
smoothSolver:  Solving for h, Initial residual = 6.00925e-08, Final residual = 4.03274e-17, No Iterations 2
--> FOAM Warning : 
    From Foam::scalar Foam::janaf2TThermo<EquationOfState>::limit(Foam::scalar) const [with EquationOfState = Foam::perfect2TGas<Foam::specie2T>; Foam::scalar = double]
    in file ../specie/lnInclude/janaf2TThermoI.H at line 135
    attempt to use janaf2TThermo<EquationOfState> out of temperature range 200 -> 20000;  TTR = 197.833
Sanity check: max(|rhoCont - rhoFromSpecies|) = 8.88178e-16

ExecutionTime = 2.6 s  ClockTime = 3 s

Mean and max Courant Numbers = 0.165069 0.202165
deltaT = 6.24469e-05
Time = 0.0118141

diagonal:  Solving for rhoCont, Initial residual = 0, Final residual = 0, No Iterations 0
diagonal:  Solving for rhoY_Y_N2, Initial residual = 0, Final residual = 0, No Iterations 0
diagonal:  Solving for rhoY_Y_O2, Initial residual = 0, Final residual = 0, No Iterations 0
diagonal:  Solving for rhoUx, Initial residual = 0, Final residual = 0, No Iterations 0
smoothSolver:  Solving for Ux, Initial residual = 7.61864e-09, Final residual = 5.01171e-17, No Iterations 2
diagonal:  Solving for rhoE, Initial residual = 0, Final residual = 0, No Iterations 0
--> FOAM Warning : 
    From Foam::scalar Foam::janaf2TThermo<EquationOfState>::limit(Foam::scalar) const [with EquationOfState = Foam::perfect2TGas<Foam::specie2T>; Foam::scalar = double]
    in file ../specie/lnInclude/janaf2TThermoI.H at line 135
    attempt to use janaf2TThermo<EquationOfState> out of temperature range 200 -> 20000;  TTR = 197.359
smoothSolver:  Solving for h, Initial residual = 5.87207e-08, Final residual = 3.19201e-17, No Iterations 2
--> FOAM Warning : 
    From Foam::scalar Foam::janaf2TThermo<EquationOfState>::limit(Foam::scalar) const [with EquationOfState = Foam::perfect2TGas<Foam::specie2T>; Foam::scalar = double]
    in file ../specie/lnInclude/janaf2TThermoI.H at line 135
    attempt to use janaf2TThermo<EquationOfState> out of temperature range 200 -> 20000;  TTR = 197.359
Sanity check: max(|rhoCont - rhoFromSpecies|) = 8.32667e-16

ExecutionTime = 2.66 s  ClockTime = 3 s

Mean and max Courant Numbers = 0.163214 0.202298
deltaT = 6.17375e-05
Time = 0.0118758

diagonal:  Solving for rhoCont, Initial residual = 0, Final residual = 0, No Iterations 0
diagonal:  Solving for rhoY_Y_N2, Initial residual = 0, Final residual = 0, No Iterations 0
diagonal:  Solving for rhoY_Y_O2, Initial residual = 0, Final residual = 0, No Iterations 0
diagonal:  Solving for rhoUx, Initial residual = 0, Final residual = 0, No Iterations 0
smoothSolver:  Solving for Ux, Initial residual = 8.13932e-09, Final residual = 4.58817e-17, No Iterations 2
diagonal:  Solving for rhoE, Initial residual = 0, Final residual = 0, No Iterations 0
--> FOAM Warning : 
    From Foam::scalar Foam::janaf2TThermo<EquationOfState>::limit(Foam::scalar) const [with EquationOfState = Foam::perfect2TGas<Foam::specie2T>; Foam::scalar = double]
    in file ../specie/lnInclude/janaf2TThermoI.H at line 135
    attempt to use janaf2TThermo<EquationOfState> out of temperature range 200 -> 20000;  TTR = 197.33
smoothSolver:  Solving for h, Initial residual = 5.75998e-08, Final residual = 2.74159e-17, No Iterations 2
--> FOAM Warning : 
    From Foam::scalar Foam::janaf2TThermo<EquationOfState>::limit(Foam::scalar) const [with EquationOfState = Foam::perfect2TGas<Foam::specie2T>; Foam::scalar = double]
    in file ../specie/lnInclude/janaf2TThermoI.H at line 135
    attempt to use janaf2TThermo<EquationOfState> out of temperature range 200 -> 20000;  TTR = 197.33
Sanity check: max(|rhoCont - rhoFromSpecies|) = 7.77156e-16

ExecutionTime = 2.72 s  ClockTime = 3 s

Mean and max Courant Numbers = 0.161283 0.201194
deltaT = 6.13712e-05
Time = 0.0119372

diagonal:  Solving for rhoCont, Initial residual = 0, Final residual = 0, No Iterations 0
diagonal:  Solving for rhoY_Y_N2, Initial residual = 0, Final residual = 0, No Iterations 0
diagonal:  Solving for rhoY_Y_O2, Initial residual = 0, Final residual = 0, No Iterations 0
diagonal:  Solving for rhoUx, Initial residual = 0, Final residual = 0, No Iterations 0
smoothSolver:  Solving for Ux, Initial residual = 8.55681e-09, Final residual = 4.40187e-17, No Iterations 2
diagonal:  Solving for rhoE, Initial residual = 0, Final residual = 0, No Iterations 0
--> FOAM Warning : 
    From Foam::scalar Foam::janaf2TThermo<EquationOfState>::limit(Foam::scalar) const [with EquationOfState = Foam::perfect2TGas<Foam::specie2T>; Foam::scalar = double]
    in file ../specie/lnInclude/janaf2TThermoI.H at line 135
    attempt to use janaf2TThermo<EquationOfState> out of temperature range 200 -> 20000;  TTR = 197.812
smoothSolver:  Solving for h, Initial residual = 5.64878e-08, Final residual = 3.41394e-17, No Iterations 2
--> FOAM Warning : 
    From Foam::scalar Foam::janaf2TThermo<EquationOfState>::limit(Foam::scalar) const [with EquationOfState = Foam::perfect2TGas<Foam::specie2T>; Foam::scalar = double]
    in file ../specie/lnInclude/janaf2TThermoI.H at line 135
    attempt to use janaf2TThermo<EquationOfState> out of temperature range 200 -> 20000;  TTR = 197.812
Sanity check: max(|rhoCont - rhoFromSpecies|) = 7.21645e-16

ExecutionTime = 2.78 s  ClockTime = 3 s

Mean and max Courant Numbers = 0.160276 0.198768
deltaT = 6.17516e-05
Time = 0.0119989

diagonal:  Solving for rhoCont, Initial residual = 0, Final residual = 0, No Iterations 0
diagonal:  Solving for rhoY_Y_N2, Initial residual = 0, Final residual = 0, No Iterations 0
diagonal:  Solving for rhoY_Y_O2, Initial residual = 0, Final residual = 0, No Iterations 0
diagonal:  Solving for rhoUx, Initial residual = 0, Final residual = 0, No Iterations 0
smoothSolver:  Solving for Ux, Initial residual = 8.8804e-09, Final residual = 4.56608e-17, No Iterations 2
diagonal:  Solving for rhoE, Initial residual = 0, Final residual = 0, No Iterations 0
--> FOAM Warning : 
    From Foam::scalar Foam::janaf2TThermo<EquationOfState>::limit(Foam::scalar) const [with EquationOfState = Foam::perfect2TGas<Foam::specie2T>; Foam::scalar = double]
    in file ../specie/lnInclude/janaf2TThermoI.H at line 135
    attempt to use janaf2TThermo<EquationOfState> out of temperature range 200 -> 20000;  TTR = 198.798
--> FOAM Warning : 
    From Foam::scalar Foam::janaf2TThermo<EquationOfState>::limit(Foam::scalar) const [with EquationOfState = Foam::perfect2TGas<Foam::specie2T>; Foam::scalar = double]
    in file ../specie/lnInclude/janaf2TThermoI.H at line 135
    attempt to use janaf2TThermo<EquationOfState> out of temperature range 200 -> 20000;  TTR = 199.36
--> FOAM Warning : 
    From Foam::scalar Foam::janaf2TThermo<EquationOfState>::limit(Foam::scalar) const [with EquationOfState = Foam::perfect2TGas<Foam::specie2T>; Foam::scalar = double]
    in file ../specie/lnInclude/janaf2TThermoI.H at line 135
    attempt to use janaf2TThermo<EquationOfState> out of temperature range 200 -> 20000;  TTR = 199.36
smoothSolver:  Solving for h, Initial residual = 5.5519e-08, Final residual = 3.67119e-17, No Iterations 2
--> FOAM Warning : 
    From Foam::scalar Foam::janaf2TThermo<EquationOfState>::limit(Foam::scalar) const [with EquationOfState = Foam::perfect2TGas<Foam::specie2T>; Foam::scalar = double]
    in file ../specie/lnInclude/janaf2TThermoI.H at line 135
    attempt to use janaf2TThermo<EquationOfState> out of temperature range 200 -> 20000;  TTR = 198.798
--> FOAM Warning : 
    From Foam::scalar Foam::janaf2TThermo<EquationOfState>::limit(Foam::scalar) const [with EquationOfState = Foam::perfect2TGas<Foam::specie2T>; Foam::scalar = double]
    in file ../specie/lnInclude/janaf2TThermoI.H at line 135
    attempt to use janaf2TThermo<EquationOfState> out of temperature range 200 -> 20000;  TTR = 199.36
Sanity check: max(|rhoCont - rhoFromSpecies|) = 7.77156e-16

ExecutionTime = 2.83 s  ClockTime = 3 s

Mean and max Courant Numbers = 0.161249 0.196411
deltaT = 6.28798e-05
Time = 0.0120618

diagonal:  Solving for rhoCont, Initial residual = 0, Final residual = 0, No Iterations 0
diagonal:  Solving for rhoY_Y_N2, Initial residual = 0, Final residual = 0, No Iterations 0
diagonal:  Solving for rhoY_Y_O2, Initial residual = 0, Final residual = 0, No Iterations 0
diagonal:  Solving for rhoUx, Initial residual = 0, Final residual = 0, No Iterations 0
smoothSolver:  Solving for Ux, Initial residual = 9.34496e-09, Final residual = 4.99603e-17, No Iterations 2
diagonal:  Solving for rhoE, Initial residual = 0, Final residual = 0, No Iterations 0
--> FOAM Warning : 
    From Foam::scalar Foam::janaf2TThermo<EquationOfState>::limit(Foam::scalar) const [with EquationOfState = Foam::perfect2TGas<Foam::specie2T>; Foam::scalar = double]
    in file ../specie/lnInclude/janaf2TThermoI.H at line 135
    attempt to use janaf2TThermo<EquationOfState> out of temperature range 200 -> 20000;  TTR = 198.084
smoothSolver:  Solving for h, Initial residual = 5.46403e-08, Final residual = 3.58193e-17, No Iterations 2
--> FOAM Warning : 
    From Foam::scalar Foam::janaf2TThermo<EquationOfState>::limit(Foam::scalar) const [with EquationOfState = Foam::perfect2TGas<Foam::specie2T>; Foam::scalar = double]
    in file ../specie/lnInclude/janaf2TThermoI.H at line 135
    attempt to use janaf2TThermo<EquationOfState> out of temperature range 200 -> 20000;  TTR = 198.084
Sanity check: max(|rhoCont - rhoFromSpecies|) = 7.77156e-16

ExecutionTime = 2.89 s  ClockTime = 3 s

Mean and max Courant Numbers = 0.164189 0.19797
deltaT = 6.35245e-05
Time = 0.0121253

diagonal:  Solving for rhoCont, Initial residual = 0, Final residual = 0, No Iterations 0
diagonal:  Solving for rhoY_Y_N2, Initial residual = 0, Final residual = 0, No Iterations 0
diagonal:  Solving for rhoY_Y_O2, Initial residual = 0, Final residual = 0, No Iterations 0
diagonal:  Solving for rhoUx, Initial residual = 0, Final residual = 0, No Iterations 0
smoothSolver:  Solving for Ux, Initial residual = 9.49088e-09, Final residual = 5.04916e-17, No Iterations 2
diagonal:  Solving for rhoE, Initial residual = 0, Final residual = 0, No Iterations 0
--> FOAM Warning : 
    From Foam::scalar Foam::janaf2TThermo<EquationOfState>::limit(Foam::scalar) const [with EquationOfState = Foam::perfect2TGas<Foam::specie2T>; Foam::scalar = double]
    in file ../specie/lnInclude/janaf2TThermoI.H at line 135
    attempt to use janaf2TThermo<EquationOfState> out of temperature range 200 -> 20000;  TTR = 197.252
smoothSolver:  Solving for h, Initial residual = 5.34504e-08, Final residual = 3.62177e-17, No Iterations 2
--> FOAM Warning : 
    From Foam::scalar Foam::janaf2TThermo<EquationOfState>::limit(Foam::scalar) const [with EquationOfState = Foam::perfect2TGas<Foam::specie2T>; Foam::scalar = double]
    in file ../specie/lnInclude/janaf2TThermoI.H at line 135
    attempt to use janaf2TThermo<EquationOfState> out of temperature range 200 -> 20000;  TTR = 197.252
Sanity check: max(|rhoCont - rhoFromSpecies|) = 7.21645e-16

ExecutionTime = 2.94 s  ClockTime = 3 s

Mean and max Courant Numbers = 0.165843 0.20197
deltaT = 6.29049e-05
Time = 0.0121882

diagonal:  Solving for rhoCont, Initial residual = 0, Final residual = 0, No Iterations 0
diagonal:  Solving for rhoY_Y_N2, Initial residual = 0, Final residual = 0, No Iterations 0
diagonal:  Solving for rhoY_Y_O2, Initial residual = 0, Final residual = 0, No Iterations 0
diagonal:  Solving for rhoUx, Initial residual = 0, Final residual = 0, No Iterations 0
smoothSolver:  Solving for Ux, Initial residual = 8.94673e-09, Final residual = 4.64374e-17, No Iterations 2
diagonal:  Solving for rhoE, Initial residual = 0, Final residual = 0, No Iterations 0
--> FOAM Warning : 
    From Foam::scalar Foam::janaf2TThermo<EquationOfState>::limit(Foam::scalar) const [with EquationOfState = Foam::perfect2TGas<Foam::specie2T>; Foam::scalar = double]
    in file ../specie/lnInclude/janaf2TThermoI.H at line 135
    attempt to use janaf2TThermo<EquationOfState> out of temperature range 200 -> 20000;  TTR = 196.717
smoothSolver:  Solving for h, Initial residual = 5.14796e-08, Final residual = 3.56644e-17, No Iterations 2
--> FOAM Warning : 
    From Foam::scalar Foam::janaf2TThermo<EquationOfState>::limit(Foam::scalar) const [with EquationOfState = Foam::perfect2TGas<Foam::specie2T>; Foam::scalar = double]
    in file ../specie/lnInclude/janaf2TThermoI.H at line 135
    attempt to use janaf2TThermo<EquationOfState> out of temperature range 200 -> 20000;  TTR = 196.717
Sanity check: max(|rhoCont - rhoFromSpecies|) = 7.77156e-16

ExecutionTime = 3 s  ClockTime = 3 s

Mean and max Courant Numbers = 0.164166 0.202399
deltaT = 6.21594e-05
Time = 0.0122504

diagonal:  Solving for rhoCont, Initial residual = 0, Final residual = 0, No Iterations 0
diagonal:  Solving for rhoY_Y_N2, Initial residual = 0, Final residual = 0, No Iterations 0
diagonal:  Solving for rhoY_Y_O2, Initial residual = 0, Final residual = 0, No Iterations 0
diagonal:  Solving for rhoUx, Initial residual = 0, Final residual = 0, No Iterations 0
smoothSolver:  Solving for Ux, Initial residual = 8.85176e-09, Final residual = 4.11692e-17, No Iterations 2
diagonal:  Solving for rhoE, Initial residual = 0, Final residual = 0, No Iterations 0
--> FOAM Warning : 
    From Foam::scalar Foam::janaf2TThermo<EquationOfState>::limit(Foam::scalar) const [with EquationOfState = Foam::perfect2TGas<Foam::specie2T>; Foam::scalar = double]
    in file ../specie/lnInclude/janaf2TThermoI.H at line 135
    attempt to use janaf2TThermo<EquationOfState> out of temperature range 200 -> 20000;  TTR = 196.609
smoothSolver:  Solving for h, Initial residual = 5.17972e-08, Final residual = 4.07991e-17, No Iterations 2
--> FOAM Warning : 
    From Foam::scalar Foam::janaf2TThermo<EquationOfState>::limit(Foam::scalar) const [with EquationOfState = Foam::perfect2TGas<Foam::specie2T>; Foam::scalar = double]
    in file ../specie/lnInclude/janaf2TThermoI.H at line 135
    attempt to use janaf2TThermo<EquationOfState> out of temperature range 200 -> 20000;  TTR = 196.609
Sanity check: max(|rhoCont - rhoFromSpecies|) = 6.66134e-16

ExecutionTime = 3.06 s  ClockTime = 3 s

Mean and max Courant Numbers = 0.162112 0.201626
deltaT = 6.16581e-05
Time = 0.0123121

diagonal:  Solving for rhoCont, Initial residual = 0, Final residual = 0, No Iterations 0
diagonal:  Solving for rhoY_Y_N2, Initial residual = 0, Final residual = 0, No Iterations 0
diagonal:  Solving for rhoY_Y_O2, Initial residual = 0, Final residual = 0, No Iterations 0
diagonal:  Solving for rhoUx, Initial residual = 0, Final residual = 0, No Iterations 0
smoothSolver:  Solving for Ux, Initial residual = 9.19289e-09, Final residual = 5.75309e-17, No Iterations 2
diagonal:  Solving for rhoE, Initial residual = 0, Final residual = 0, No Iterations 0
--> FOAM Warning : 
    From Foam::scalar Foam::janaf2TThermo<EquationOfState>::limit(Foam::scalar) const [with EquationOfState = Foam::perfect2TGas<Foam::specie2T>; Foam::scalar = double]
    in file ../specie/lnInclude/janaf2TThermoI.H at line 135
    attempt to use janaf2TThermo<EquationOfState> out of temperature range 200 -> 20000;  TTR = 197.018
smoothSolver:  Solving for h, Initial residual = 5.39448e-08, Final residual = 3.35765e-17, No Iterations 2
--> FOAM Warning : 
    From Foam::scalar Foam::janaf2TThermo<EquationOfState>::limit(Foam::scalar) const [with EquationOfState = Foam::perfect2TGas<Foam::specie2T>; Foam::scalar = double]
    in file ../specie/lnInclude/janaf2TThermoI.H at line 135
    attempt to use janaf2TThermo<EquationOfState> out of temperature range 200 -> 20000;  TTR = 197.018
Sanity check: max(|rhoCont - rhoFromSpecies|) = 7.77156e-16

ExecutionTime = 3.12 s  ClockTime = 3 s

Mean and max Courant Numbers = 0.160733 0.198603
deltaT = 6.20917e-05
Time = 0.0123742

diagonal:  Solving for rhoCont, Initial residual = 0, Final residual = 0, No Iterations 0
diagonal:  Solving for rhoY_Y_N2, Initial residual = 0, Final residual = 0, No Iterations 0
diagonal:  Solving for rhoY_Y_O2, Initial residual = 0, Final residual = 0, No Iterations 0
diagonal:  Solving for rhoUx, Initial residual = 0, Final residual = 0, No Iterations 0
smoothSolver:  Solving for Ux, Initial residual = 9.31064e-09, Final residual = 4.9317e-17, No Iterations 2
diagonal:  Solving for rhoE, Initial residual = 0, Final residual = 0, No Iterations 0
--> FOAM Warning : 
    From Foam::scalar Foam::janaf2TThermo<EquationOfState>::limit(Foam::scalar) const [with EquationOfState = Foam::perfect2TGas<Foam::specie2T>; Foam::scalar = double]
    in file ../specie/lnInclude/janaf2TThermoI.H at line 135
    attempt to use janaf2TThermo<EquationOfState> out of temperature range 200 -> 20000;  TTR = 197.943
--> FOAM Warning : 
    From Foam::scalar Foam::janaf2TThermo<EquationOfState>::limit(Foam::scalar) const [with EquationOfState = Foam::perfect2TGas<Foam::specie2T>; Foam::scalar = double]
    in file ../specie/lnInclude/janaf2TThermoI.H at line 135
    attempt to use janaf2TThermo<EquationOfState> out of temperature range 200 -> 20000;  TTR = 198.901
--> FOAM Warning : 
    From Foam::scalar Foam::janaf2TThermo<EquationOfState>::limit(Foam::scalar) const [with EquationOfState = Foam::perfect2TGas<Foam::specie2T>; Foam::scalar = double]
    in file ../specie/lnInclude/janaf2TThermoI.H at line 135
    attempt to use janaf2TThermo<EquationOfState> out of temperature range 200 -> 20000;  TTR = 198.901
smoothSolver:  Solving for h, Initial residual = 5.60005e-08, Final residual = 3.73066e-17, No Iterations 2
--> FOAM Warning : 
    From Foam::scalar Foam::janaf2TThermo<EquationOfState>::limit(Foam::scalar) const [with EquationOfState = Foam::perfect2TGas<Foam::specie2T>; Foam::scalar = double]
    in file ../specie/lnInclude/janaf2TThermoI.H at line 135
    attempt to use janaf2TThermo<EquationOfState> out of temperature range 200 -> 20000;  TTR = 197.943
--> FOAM Warning : 
    From Foam::scalar Foam::janaf2TThermo<EquationOfState>::limit(Foam::scalar) const [with EquationOfState = Foam::perfect2TGas<Foam::specie2T>; Foam::scalar = double]
    in file ../specie/lnInclude/janaf2TThermoI.H at line 135
    attempt to use janaf2TThermo<EquationOfState> out of temperature range 200 -> 20000;  TTR = 198.901
Sanity check: max(|rhoCont - rhoFromSpecies|) = 7.21645e-16

ExecutionTime = 3.19 s  ClockTime = 3 s

Mean and max Courant Numbers = 0.161822 0.196023
deltaT = 6.33515e-05
Time = 0.0124375

diagonal:  Solving for rhoCont, Initial residual = 0, Final residual = 0, No Iterations 0
diagonal:  Solving for rhoY_Y_N2, Initial residual = 0, Final residual = 0, No Iterations 0
diagonal:  Solving for rhoY_Y_O2, Initial residual = 0, Final residual = 0, No Iterations 0
diagonal:  Solving for rhoUx, Initial residual = 0, Final residual = 0, No Iterations 0
smoothSolver:  Solving for Ux, Initial residual = 9.28662e-09, Final residual = 4.89405e-17, No Iterations 2
diagonal:  Solving for rhoE, Initial residual = 0, Final residual = 0, No Iterations 0
--> FOAM Warning : 
    From Foam::scalar Foam::janaf2TThermo<EquationOfState>::limit(Foam::scalar) const [with EquationOfState = Foam::perfect2TGas<Foam::specie2T>; Foam::scalar = double]
    in file ../specie/lnInclude/janaf2TThermoI.H at line 135
    attempt to use janaf2TThermo<EquationOfState> out of temperature range 200 -> 20000;  TTR = 199.391
--> FOAM Warning : 
    From Foam::scalar Foam::janaf2TThermo<EquationOfState>::limit(Foam::scalar) const [with EquationOfState = Foam::perfect2TGas<Foam::specie2T>; Foam::scalar = double]
    in file ../specie/lnInclude/janaf2TThermoI.H at line 135
    attempt to use janaf2TThermo<EquationOfState> out of temperature range 200 -> 20000;  TTR = 197.56
smoothSolver:  Solving for h, Initial residual = 5.72065e-08, Final residual = 3.7236e-17, No Iterations 2
--> FOAM Warning : 
    From Foam::scalar Foam::janaf2TThermo<EquationOfState>::limit(Foam::scalar) const [with EquationOfState = Foam::perfect2TGas<Foam::specie2T>; Foam::scalar = double]
    in file ../specie/lnInclude/janaf2TThermoI.H at line 135
    attempt to use janaf2TThermo<EquationOfState> out of temperature range 200 -> 20000;  TTR = 199.391
--> FOAM Warning : 
    From Foam::scalar Foam::janaf2TThermo<EquationOfState>::limit(Foam::scalar) const [with EquationOfState = Foam::perfect2TGas<Foam::specie2T>; Foam::scalar = double]
    in file ../specie/lnInclude/janaf2TThermoI.H at line 135
    attempt to use janaf2TThermo<EquationOfState> out of temperature range 200 -> 20000;  TTR = 197.56
Sanity check: max(|rhoCont - rhoFromSpecies|) = 7.21645e-16

ExecutionTime = 3.25 s  ClockTime = 4 s

Mean and max Courant Numbers = 0.165051 0.198852
deltaT = 6.37171e-05
Time = 0.0125012

diagonal:  Solving for rhoCont, Initial residual = 0, Final residual = 0, No Iterations 0
diagonal:  Solving for rhoY_Y_N2, Initial residual = 0, Final residual = 0, No Iterations 0
diagonal:  Solving for rhoY_Y_O2, Initial residual = 0, Final residual = 0, No Iterations 0
diagonal:  Solving for rhoUx, Initial residual = 0, Final residual = 0, No Iterations 0
smoothSolver:  Solving for Ux, Initial residual = 8.89016e-09, Final residual = 3.89212e-17, No Iterations 2
diagonal:  Solving for rhoE, Initial residual = 0, Final residual = 0, No Iterations 0
--> FOAM Warning : 
    From Foam::scalar Foam::janaf2TThermo<EquationOfState>::limit(Foam::scalar) const [with EquationOfState = Foam::perfect2TGas<Foam::specie2T>; Foam::scalar = double]
    in file ../specie/lnInclude/janaf2TThermoI.H at line 135
    attempt to use janaf2TThermo<EquationOfState> out of temperature range 200 -> 20000;  TTR = 196.7
smoothSolver:  Solving for h, Initial residual = 5.62493e-08, Final residual = 3.61048e-17, No Iterations 2
--> FOAM Warning : 
    From Foam::scalar Foam::janaf2TThermo<EquationOfState>::limit(Foam::scalar) const [with EquationOfState = Foam::perfect2TGas<Foam::specie2T>; Foam::scalar = double]
    in file ../specie/lnInclude/janaf2TThermoI.H at line 135
    attempt to use janaf2TThermo<EquationOfState> out of temperature range 200 -> 20000;  TTR = 196.7
Sanity check: max(|rhoCont - rhoFromSpecies|) = 7.21645e-16

ExecutionTime = 3.31 s  ClockTime = 4 s

Mean and max Courant Numbers = 0.16595 0.202428
deltaT = 6.29528e-05
Time = 0.0125642

diagonal:  Solving for rhoCont, Initial residual = 0, Final residual = 0, No Iterations 0
diagonal:  Solving for rhoY_Y_N2, Initial residual = 0, Final residual = 0, No Iterations 0
diagonal:  Solving for rhoY_Y_O2, Initial residual = 0, Final residual = 0, No Iterations 0
diagonal:  Solving for rhoUx, Initial residual = 0, Final residual = 0, No Iterations 0
smoothSolver:  Solving for Ux, Initial residual = 8.08943e-09, Final residual = 3.76248e-17, No Iterations 2
diagonal:  Solving for rhoE, Initial residual = 0, Final residual = 0, No Iterations 0
--> FOAM Warning : 
    From Foam::scalar Foam::janaf2TThermo<EquationOfState>::limit(Foam::scalar) const [with EquationOfState = Foam::perfect2TGas<Foam::specie2T>; Foam::scalar = double]
    in file ../specie/lnInclude/janaf2TThermoI.H at line 135
    attempt to use janaf2TThermo<EquationOfState> out of temperature range 200 -> 20000;  TTR = 196.134
smoothSolver:  Solving for h, Initial residual = 5.47387e-08, Final residual = 4.23076e-17, No Iterations 2
--> FOAM Warning : 
    From Foam::scalar Foam::janaf2TThermo<EquationOfState>::limit(Foam::scalar) const [with EquationOfState = Foam::perfect2TGas<Foam::specie2T>; Foam::scalar = double]
    in file ../specie/lnInclude/janaf2TThermoI.H at line 135
    attempt to use janaf2TThermo<EquationOfState> out of temperature range 200 -> 20000;  TTR = 196.134
Sanity check: max(|rhoCont - rhoFromSpecies|) = 7.21645e-16

ExecutionTime = 3.37 s  ClockTime = 4 s

Mean and max Courant Numbers = 0.163928 0.202328
deltaT = 6.22284e-05
Time = 0.0126264

diagonal:  Solving for rhoCont, Initial residual = 0, Final residual = 0, No Iterations 0
diagonal:  Solving for rhoY_Y_N2, Initial residual = 0, Final residual = 0, No Iterations 0
diagonal:  Solving for rhoY_Y_O2, Initial residual = 0, Final residual = 0, No Iterations 0
diagonal:  Solving for rhoUx, Initial residual = 0, Final residual = 0, No Iterations 0
smoothSolver:  Solving for Ux, Initial residual = 8.04393e-09, Final residual = 3.98064e-17, No Iterations 2
diagonal:  Solving for rhoE, Initial residual = 0, Final residual = 0, No Iterations 0
--> FOAM Warning : 
    From Foam::scalar Foam::janaf2TThermo<EquationOfState>::limit(Foam::scalar) const [with EquationOfState = Foam::perfect2TGas<Foam::specie2T>; Foam::scalar = double]
    in file ../specie/lnInclude/janaf2TThermoI.H at line 135
    attempt to use janaf2TThermo<EquationOfState> out of temperature range 200 -> 20000;  TTR = 195.969
smoothSolver:  Solving for h, Initial residual = 5.30452e-08, Final residual = 3.86644e-17, No Iterations 2
--> FOAM Warning : 
    From Foam::scalar Foam::janaf2TThermo<EquationOfState>::limit(Foam::scalar) const [with EquationOfState = Foam::perfect2TGas<Foam::specie2T>; Foam::scalar = double]
    in file ../specie/lnInclude/janaf2TThermoI.H at line 135
    attempt to use janaf2TThermo<EquationOfState> out of temperature range 200 -> 20000;  TTR = 195.969
Sanity check: max(|rhoCont - rhoFromSpecies|) = 7.21645e-16

ExecutionTime = 3.43 s  ClockTime = 4 s

Mean and max Courant Numbers = 0.161975 0.200978
deltaT = 6.19254e-05
Time = 0.0126883

diagonal:  Solving for rhoCont, Initial residual = 0, Final residual = 0, No Iterations 0
diagonal:  Solving for rhoY_Y_N2, Initial residual = 0, Final residual = 0, No Iterations 0
diagonal:  Solving for rhoY_Y_O2, Initial residual = 0, Final residual = 0, No Iterations 0
diagonal:  Solving for rhoUx, Initial residual = 0, Final residual = 0, No Iterations 0
smoothSolver:  Solving for Ux, Initial residual = 8.36307e-09, Final residual = 4.23317e-17, No Iterations 2
diagonal:  Solving for rhoE, Initial residual = 0, Final residual = 0, No Iterations 0
--> FOAM Warning : 
    From Foam::scalar Foam::janaf2TThermo<EquationOfState>::limit(Foam::scalar) const [with EquationOfState = Foam::perfect2TGas<Foam::specie2T>; Foam::scalar = double]
    in file ../specie/lnInclude/janaf2TThermoI.H at line 135
    attempt to use janaf2TThermo<EquationOfState> out of temperature range 200 -> 20000;  TTR = 196.322
smoothSolver:  Solving for h, Initial residual = 5.15193e-08, Final residual = 2.79188e-17, No Iterations 2
--> FOAM Warning : 
    From Foam::scalar Foam::janaf2TThermo<EquationOfState>::limit(Foam::scalar) const [with EquationOfState = Foam::perfect2TGas<Foam::specie2T>; Foam::scalar = double]
    in file ../specie/lnInclude/janaf2TThermoI.H at line 135
    attempt to use janaf2TThermo<EquationOfState> out of temperature range 200 -> 20000;  TTR = 196.322
Sanity check: max(|rhoCont - rhoFromSpecies|) = 7.21645e-16

ExecutionTime = 3.48 s  ClockTime = 4 s

Mean and max Courant Numbers = 0.16106 0.198977
deltaT = 6.22439e-05
Time = 0.0127506

diagonal:  Solving for rhoCont, Initial residual = 0, Final residual = 0, No Iterations 0
diagonal:  Solving for rhoY_Y_N2, Initial residual = 0, Final residual = 0, No Iterations 0
diagonal:  Solving for rhoY_Y_O2, Initial residual = 0, Final residual = 0, No Iterations 0
diagonal:  Solving for rhoUx, Initial residual = 0, Final residual = 0, No Iterations 0
smoothSolver:  Solving for Ux, Initial residual = 8.42893e-09, Final residual = 4.54046e-17, No Iterations 2
diagonal:  Solving for rhoE, Initial residual = 0, Final residual = 0, No Iterations 0
--> FOAM Warning : 
    From Foam::scalar Foam::janaf2TThermo<EquationOfState>::limit(Foam::scalar) const [with EquationOfState = Foam::perfect2TGas<Foam::specie2T>; Foam::scalar = double]
    in file ../specie/lnInclude/janaf2TThermoI.H at line 135
    attempt to use janaf2TThermo<EquationOfState> out of temperature range 200 -> 20000;  TTR = 197.198
--> FOAM Warning : 
    From Foam::scalar Foam::janaf2TThermo<EquationOfState>::limit(Foam::scalar) const [with EquationOfState = Foam::perfect2TGas<Foam::specie2T>; Foam::scalar = double]
[...]
smoothSolver:  Solving for h, Initial residual = 2.28243e-08, Final residual = 3.38316e-17, No Iterations 2
Sanity check: max(|rhoCont - rhoFromSpecies|) = 7.43849e-15

ExecutionTime = 39.86 s  ClockTime = 40 s

Mean and max Courant Numbers = 0.149665 0.200125
deltaT = 6.85003e-05
Time = 0.0544771

diagonal:  Solving for rhoCont, Initial residual = 0, Final residual = 0, No Iterations 0
diagonal:  Solving for rhoY_Y_N2, Initial residual = 0, Final residual = 0, No Iterations 0
diagonal:  Solving for rhoY_Y_O2, Initial residual = 0, Final residual = 0, No Iterations 0
diagonal:  Solving for rhoUx, Initial residual = 0, Final residual = 0, No Iterations 0
smoothSolver:  Solving for Ux, Initial residual = 8.50073e-09, Final residual = 4.034e-17, No Iterations 2
diagonal:  Solving for rhoE, Initial residual = 0, Final residual = 0, No Iterations 0
smoothSolver:  Solving for h, Initial residual = 2.28314e-08, Final residual = 3.4792e-17, No Iterations 2
Sanity check: max(|rhoCont - rhoFromSpecies|) = 7.43849e-15

ExecutionTime = 39.92 s  ClockTime = 40 s

Mean and max Courant Numbers = 0.149423 0.200057
deltaT = 6.84808e-05
Time = 0.0545455

diagonal:  Solving for rhoCont, Initial residual = 0, Final residual = 0, No Iterations 0
diagonal:  Solving for rhoY_Y_N2, Initial residual = 0, Final residual = 0, No Iterations 0
diagonal:  Solving for rhoY_Y_O2, Initial residual = 0, Final residual = 0, No Iterations 0
diagonal:  Solving for rhoUx, Initial residual = 0, Final residual = 0, No Iterations 0
smoothSolver:  Solving for Ux, Initial residual = 8.46486e-09, Final residual = 3.65604e-17, No Iterations 2
diagonal:  Solving for rhoE, Initial residual = 0, Final residual = 0, No Iterations 0
smoothSolver:  Solving for h, Initial residual = 2.28368e-08, Final residual = 3.60515e-17, No Iterations 2
Sanity check: max(|rhoCont - rhoFromSpecies|) = 7.32747e-15

ExecutionTime = 39.99 s  ClockTime = 40 s

Mean and max Courant Numbers = 0.149256 0.200607
deltaT = 6.82735e-05
Time = 0.0546138

diagonal:  Solving for rhoCont, Initial residual = 0, Final residual = 0, No Iterations 0
diagonal:  Solving for rhoY_Y_N2, Initial residual = 0, Final residual = 0, No Iterations 0
diagonal:  Solving for rhoY_Y_O2, Initial residual = 0, Final residual = 0, No Iterations 0
diagonal:  Solving for rhoUx, Initial residual = 0, Final residual = 0, No Iterations 0
smoothSolver:  Solving for Ux, Initial residual = 9.27284e-09, Final residual = 3.63784e-17, No Iterations 2
diagonal:  Solving for rhoE, Initial residual = 0, Final residual = 0, No Iterations 0
smoothSolver:  Solving for h, Initial residual = 2.26315e-08, Final residual = 3.8037e-17, No Iterations 2
Sanity check: max(|rhoCont - rhoFromSpecies|) = 7.32747e-15

ExecutionTime = 40.07 s  ClockTime = 40 s

Mean and max Courant Numbers = 0.148703 0.200014
deltaT = 6.82687e-05
Time = 0.0546821

diagonal:  Solving for rhoCont, Initial residual = 0, Final residual = 0, No Iterations 0
diagonal:  Solving for rhoY_Y_N2, Initial residual = 0, Final residual = 0, No Iterations 0
diagonal:  Solving for rhoY_Y_O2, Initial residual = 0, Final residual = 0, No Iterations 0
diagonal:  Solving for rhoUx, Initial residual = 0, Final residual = 0, No Iterations 0
smoothSolver:  Solving for Ux, Initial residual = 9.5722e-09, Final residual = 4.10501e-17, No Iterations 2
diagonal:  Solving for rhoE, Initial residual = 0, Final residual = 0, No Iterations 0
smoothSolver:  Solving for h, Initial residual = 2.23597e-08, Final residual = 3.45419e-17, No Iterations 2
Sanity check: max(|rhoCont - rhoFromSpecies|) = 7.32747e-15

ExecutionTime = 40.14 s  ClockTime = 40 s

Mean and max Courant Numbers = 0.148523 0.200272
deltaT = 6.8176e-05
Time = 0.0547503

diagonal:  Solving for rhoCont, Initial residual = 0, Final residual = 0, No Iterations 0
diagonal:  Solving for rhoY_Y_N2, Initial residual = 0, Final residual = 0, No Iterations 0
diagonal:  Solving for rhoY_Y_O2, Initial residual = 0, Final residual = 0, No Iterations 0
diagonal:  Solving for rhoUx, Initial residual = 0, Final residual = 0, No Iterations 0
smoothSolver:  Solving for Ux, Initial residual = 9.79945e-09, Final residual = 3.77343e-17, No Iterations 2
diagonal:  Solving for rhoE, Initial residual = 0, Final residual = 0, No Iterations 0
smoothSolver:  Solving for h, Initial residual = 2.23564e-08, Final residual = 3.08232e-17, No Iterations 2
Sanity check: max(|rhoCont - rhoFromSpecies|) = 7.21645e-15

ExecutionTime = 40.2 s  ClockTime = 40 s

Mean and max Courant Numbers = 0.148132 0.200342
deltaT = 6.80598e-05
Time = 0.0548183

diagonal:  Solving for rhoCont, Initial residual = 0, Final residual = 0, No Iterations 0
diagonal:  Solving for rhoY_Y_N2, Initial residual = 0, Final residual = 0, No Iterations 0
diagonal:  Solving for rhoY_Y_O2, Initial residual = 0, Final residual = 0, No Iterations 0
diagonal:  Solving for rhoUx, Initial residual = 0, Final residual = 0, No Iterations 0
smoothSolver:  Solving for Ux, Initial residual = 9.77023e-09, Final residual = 3.71254e-17, No Iterations 2
diagonal:  Solving for rhoE, Initial residual = 0, Final residual = 0, No Iterations 0
smoothSolver:  Solving for h, Initial residual = 2.20813e-08, Final residual = 3.58147e-17, No Iterations 2
Sanity check: max(|rhoCont - rhoFromSpecies|) = 7.43849e-15

ExecutionTime = 40.26 s  ClockTime = 41 s

Mean and max Courant Numbers = 0.147675 0.2
deltaT = 6.80599e-05
Time = 0.0548864

diagonal:  Solving for rhoCont, Initial residual = 0, Final residual = 0, No Iterations 0
diagonal:  Solving for rhoY_Y_N2, Initial residual = 0, Final residual = 0, No Iterations 0
diagonal:  Solving for rhoY_Y_O2, Initial residual = 0, Final residual = 0, No Iterations 0
diagonal:  Solving for rhoUx, Initial residual = 0, Final residual = 0, No Iterations 0
smoothSolver:  Solving for Ux, Initial residual = 9.01183e-09, Final residual = 3.93733e-17, No Iterations 2
diagonal:  Solving for rhoE, Initial residual = 0, Final residual = 0, No Iterations 0
smoothSolver:  Solving for h, Initial residual = 2.16276e-08, Final residual = 3.60596e-17, No Iterations 2
Sanity check: max(|rhoCont - rhoFromSpecies|) = 7.43849e-15

ExecutionTime = 40.32 s  ClockTime = 41 s

Mean and max Courant Numbers = 0.147425 0.200442
deltaT = 6.79099e-05
Time = 0.0549543

diagonal:  Solving for rhoCont, Initial residual = 0, Final residual = 0, No Iterations 0
diagonal:  Solving for rhoY_Y_N2, Initial residual = 0, Final residual = 0, No Iterations 0
diagonal:  Solving for rhoY_Y_O2, Initial residual = 0, Final residual = 0, No Iterations 0
diagonal:  Solving for rhoUx, Initial residual = 0, Final residual = 0, No Iterations 0
smoothSolver:  Solving for Ux, Initial residual = 8.83312e-09, Final residual = 3.5351e-17, No Iterations 2
diagonal:  Solving for rhoE, Initial residual = 0, Final residual = 0, No Iterations 0
smoothSolver:  Solving for h, Initial residual = 2.10562e-08, Final residual = 3.49054e-17, No Iterations 2
Sanity check: max(|rhoCont - rhoFromSpecies|) = 7.32747e-15

ExecutionTime = 40.38 s  ClockTime = 41 s

Mean and max Courant Numbers = 0.146851 0.200156
deltaT = 6.78571e-05
Time = 0.0550222

diagonal:  Solving for rhoCont, Initial residual = 0, Final residual = 0, No Iterations 0
diagonal:  Solving for rhoY_Y_N2, Initial residual = 0, Final residual = 0, No Iterations 0
diagonal:  Solving for rhoY_Y_O2, Initial residual = 0, Final residual = 0, No Iterations 0
diagonal:  Solving for rhoUx, Initial residual = 0, Final residual = 0, No Iterations 0
smoothSolver:  Solving for Ux, Initial residual = 9.45594e-09, Final residual = 3.81827e-17, No Iterations 2
diagonal:  Solving for rhoE, Initial residual = 0, Final residual = 0, No Iterations 0
smoothSolver:  Solving for h, Initial residual = 2.0312e-08, Final residual = 3.68153e-17, No Iterations 2
Sanity check: max(|rhoCont - rhoFromSpecies|) = 7.21645e-15

ExecutionTime = 40.43 s  ClockTime = 41 s

Mean and max Courant Numbers = 0.146519 0.199955
deltaT = 6.78725e-05
Time = 0.05509

diagonal:  Solving for rhoCont, Initial residual = 0, Final residual = 0, No Iterations 0
diagonal:  Solving for rhoY_Y_N2, Initial residual = 0, Final residual = 0, No Iterations 0
diagonal:  Solving for rhoY_Y_O2, Initial residual = 0, Final residual = 0, No Iterations 0
diagonal:  Solving for rhoUx, Initial residual = 0, Final residual = 0, No Iterations 0
smoothSolver:  Solving for Ux, Initial residual = 9.66051e-09, Final residual = 3.25239e-17, No Iterations 2
diagonal:  Solving for rhoE, Initial residual = 0, Final residual = 0, No Iterations 0
smoothSolver:  Solving for h, Initial residual = 2.09491e-08, Final residual = 3.55049e-17, No Iterations 2
Sanity check: max(|rhoCont - rhoFromSpecies|) = 7.21645e-15

ExecutionTime = 40.49 s  ClockTime = 41 s

Mean and max Courant Numbers = 0.146405 0.200078
deltaT = 6.78461e-05
Time = 0.0551579

diagonal:  Solving for rhoCont, Initial residual = 0, Final residual = 0, No Iterations 0
diagonal:  Solving for rhoY_Y_N2, Initial residual = 0, Final residual = 0, No Iterations 0
diagonal:  Solving for rhoY_Y_O2, Initial residual = 0, Final residual = 0, No Iterations 0
diagonal:  Solving for rhoUx, Initial residual = 0, Final residual = 0, No Iterations 0
smoothSolver:  Solving for Ux, Initial residual = 9.99648e-09, Final residual = 4.11273e-17, No Iterations 2
diagonal:  Solving for rhoE, Initial residual = 0, Final residual = 0, No Iterations 0
smoothSolver:  Solving for h, Initial residual = 2.21389e-08, Final residual = 3.74163e-17, No Iterations 2
Sanity check: max(|rhoCont - rhoFromSpecies|) = 7.21645e-15

ExecutionTime = 40.57 s  ClockTime = 41 s

Mean and max Courant Numbers = 0.146196 0.201137
deltaT = 6.74625e-05
Time = 0.0552253

diagonal:  Solving for rhoCont, Initial residual = 0, Final residual = 0, No Iterations 0
diagonal:  Solving for rhoY_Y_N2, Initial residual = 0, Final residual = 0, No Iterations 0
diagonal:  Solving for rhoY_Y_O2, Initial residual = 0, Final residual = 0, No Iterations 0
diagonal:  Solving for rhoUx, Initial residual = 0, Final residual = 0, No Iterations 0
smoothSolver:  Solving for Ux, Initial residual = 9.84312e-09, Final residual = 4.00068e-17, No Iterations 2
diagonal:  Solving for rhoE, Initial residual = 0, Final residual = 0, No Iterations 0
smoothSolver:  Solving for h, Initial residual = 2.30806e-08, Final residual = 3.12017e-17, No Iterations 2
Sanity check: max(|rhoCont - rhoFromSpecies|) = 7.32747e-15

ExecutionTime = 40.62 s  ClockTime = 41 s

Mean and max Courant Numbers = 0.145254 0.201221
deltaT = 6.70531e-05
Time = 0.0552924

diagonal:  Solving for rhoCont, Initial residual = 0, Final residual = 0, No Iterations 0
diagonal:  Solving for rhoY_Y_N2, Initial residual = 0, Final residual = 0, No Iterations 0
diagonal:  Solving for rhoY_Y_O2, Initial residual = 0, Final residual = 0, No Iterations 0
diagonal:  Solving for rhoUx, Initial residual = 0, Final residual = 0, No Iterations 0
smoothSolver:  Solving for Ux, Initial residual = 9.33183e-09, Final residual = 4.31006e-17, No Iterations 2
diagonal:  Solving for rhoE, Initial residual = 0, Final residual = 0, No Iterations 0
smoothSolver:  Solving for h, Initial residual = 2.36721e-08, Final residual = 3.39858e-17, No Iterations 2
Sanity check: max(|rhoCont - rhoFromSpecies|) = 7.32747e-15

ExecutionTime = 40.68 s  ClockTime = 41 s

Mean and max Courant Numbers = 0.144242 0.201253
deltaT = 6.66356e-05
Time = 0.055359

diagonal:  Solving for rhoCont, Initial residual = 0, Final residual = 0, No Iterations 0
diagonal:  Solving for rhoY_Y_N2, Initial residual = 0, Final residual = 0, No Iterations 0
diagonal:  Solving for rhoY_Y_O2, Initial residual = 0, Final residual = 0, No Iterations 0
diagonal:  Solving for rhoUx, Initial residual = 0, Final residual = 0, No Iterations 0
smoothSolver:  Solving for Ux, Initial residual = 9.02655e-09, Final residual = 3.6393e-17, No Iterations 2
diagonal:  Solving for rhoE, Initial residual = 0, Final residual = 0, No Iterations 0
smoothSolver:  Solving for h, Initial residual = 2.40247e-08, Final residual = 3.62655e-17, No Iterations 2
Sanity check: max(|rhoCont - rhoFromSpecies|) = 7.43849e-15

ExecutionTime = 40.75 s  ClockTime = 41 s

Mean and max Courant Numbers = 0.143216 0.201292
deltaT = 6.62079e-05
Time = 0.0554252

diagonal:  Solving for rhoCont, Initial residual = 0, Final residual = 0, No Iterations 0
diagonal:  Solving for rhoY_Y_N2, Initial residual = 0, Final residual = 0, No Iterations 0
diagonal:  Solving for rhoY_Y_O2, Initial residual = 0, Final residual = 0, No Iterations 0
diagonal:  Solving for rhoUx, Initial residual = 0, Final residual = 0, No Iterations 0
smoothSolver:  Solving for Ux, Initial residual = 8.56409e-09, Final residual = 4.35775e-17, No Iterations 2
diagonal:  Solving for rhoE, Initial residual = 0, Final residual = 0, No Iterations 0
smoothSolver:  Solving for h, Initial residual = 2.432e-08, Final residual = 3.06161e-17, No Iterations 2
Sanity check: max(|rhoCont - rhoFromSpecies|) = 7.54952e-15

ExecutionTime = 40.81 s  ClockTime = 41 s

Mean and max Courant Numbers = 0.142141 0.200482
deltaT = 6.60486e-05
Time = 0.0554913

diagonal:  Solving for rhoCont, Initial residual = 0, Final residual = 0, No Iterations 0
diagonal:  Solving for rhoY_Y_N2, Initial residual = 0, Final residual = 0, No Iterations 0
diagonal:  Solving for rhoY_Y_O2, Initial residual = 0, Final residual = 0, No Iterations 0
diagonal:  Solving for rhoUx, Initial residual = 0, Final residual = 0, No Iterations 0
smoothSolver:  Solving for Ux, Initial residual = 8.60622e-09, Final residual = 3.7094e-17, No Iterations 2
diagonal:  Solving for rhoE, Initial residual = 0, Final residual = 0, No Iterations 0
smoothSolver:  Solving for h, Initial residual = 2.44968e-08, Final residual = 2.92323e-17, No Iterations 2
Sanity check: max(|rhoCont - rhoFromSpecies|) = 7.54952e-15

ExecutionTime = 40.87 s  ClockTime = 41 s

Mean and max Courant Numbers = 0.14166 0.199659
deltaT = 6.61612e-05
Time = 0.0555574

diagonal:  Solving for rhoCont, Initial residual = 0, Final residual = 0, No Iterations 0
diagonal:  Solving for rhoY_Y_N2, Initial residual = 0, Final residual = 0, No Iterations 0
diagonal:  Solving for rhoY_Y_O2, Initial residual = 0, Final residual = 0, No Iterations 0
diagonal:  Solving for rhoUx, Initial residual = 0, Final residual = 0, No Iterations 0
smoothSolver:  Solving for Ux, Initial residual = 9.55195e-09, Final residual = 3.82919e-17, No Iterations 2
diagonal:  Solving for rhoE, Initial residual = 0, Final residual = 0, No Iterations 0
smoothSolver:  Solving for h, Initial residual = 2.45013e-08, Final residual = 2.94881e-17, No Iterations 2
Sanity check: max(|rhoCont - rhoFromSpecies|) = 7.54952e-15

ExecutionTime = 40.93 s  ClockTime = 41 s

Mean and max Courant Numbers = 0.141745 0.198596
deltaT = 6.66289e-05
Time = 0.0556241

diagonal:  Solving for rhoCont, Initial residual = 0, Final residual = 0, No Iterations 0
diagonal:  Solving for rhoY_Y_N2, Initial residual = 0, Final residual = 0, No Iterations 0
diagonal:  Solving for rhoY_Y_O2, Initial residual = 0, Final residual = 0, No Iterations 0
diagonal:  Solving for rhoUx, Initial residual = 0, Final residual = 0, No Iterations 0
smoothSolver:  Solving for Ux, Initial residual = 1.02168e-08, Final residual = 3.96301e-17, No Iterations 2
diagonal:  Solving for rhoE, Initial residual = 0, Final residual = 0, No Iterations 0
smoothSolver:  Solving for h, Initial residual = 2.45271e-08, Final residual = 2.96863e-17, No Iterations 2
Sanity check: max(|rhoCont - rhoFromSpecies|) = 7.54952e-15

ExecutionTime = 40.99 s  ClockTime = 41 s

Mean and max Courant Numbers = 0.14257 0.197331
deltaT = 6.75301e-05
Time = 0.0556916

diagonal:  Solving for rhoCont, Initial residual = 0, Final residual = 0, No Iterations 0
diagonal:  Solving for rhoY_Y_N2, Initial residual = 0, Final residual = 0, No Iterations 0
diagonal:  Solving for rhoY_Y_O2, Initial residual = 0, Final residual = 0, No Iterations 0
diagonal:  Solving for rhoUx, Initial residual = 0, Final residual = 0, No Iterations 0
smoothSolver:  Solving for Ux, Initial residual = 1.08144e-08, Final residual = 3.90778e-17, No Iterations 2
diagonal:  Solving for rhoE, Initial residual = 0, Final residual = 0, No Iterations 0
smoothSolver:  Solving for h, Initial residual = 2.50695e-08, Final residual = 3.01252e-17, No Iterations 2
Sanity check: max(|rhoCont - rhoFromSpecies|) = 7.54952e-15

ExecutionTime = 41.04 s  ClockTime = 41 s

Mean and max Courant Numbers = 0.144293 0.195759
deltaT = 6.89932e-05
Time = 0.0557606

diagonal:  Solving for rhoCont, Initial residual = 0, Final residual = 0, No Iterations 0
diagonal:  Solving for rhoY_Y_N2, Initial residual = 0, Final residual = 0, No Iterations 0
diagonal:  Solving for rhoY_Y_O2, Initial residual = 0, Final residual = 0, No Iterations 0
diagonal:  Solving for rhoUx, Initial residual = 0, Final residual = 0, No Iterations 0
smoothSolver:  Solving for Ux, Initial residual = 1.12827e-08, Final residual = 3.95341e-17, No Iterations 2
diagonal:  Solving for rhoE, Initial residual = 0, Final residual = 0, No Iterations 0
smoothSolver:  Solving for h, Initial residual = 2.53789e-08, Final residual = 3.45253e-17, No Iterations 2
Sanity check: max(|rhoCont - rhoFromSpecies|) = 7.54952e-15

ExecutionTime = 41.11 s  ClockTime = 41 s

Mean and max Courant Numbers = 0.147206 0.193683
deltaT = 7.12435e-05
Time = 0.0558318

diagonal:  Solving for rhoCont, Initial residual = 0, Final residual = 0, No Iterations 0
diagonal:  Solving for rhoY_Y_N2, Initial residual = 0, Final residual = 0, No Iterations 0
diagonal:  Solving for rhoY_Y_O2, Initial residual = 0, Final residual = 0, No Iterations 0
diagonal:  Solving for rhoUx, Initial residual = 0, Final residual = 0, No Iterations 0
smoothSolver:  Solving for Ux, Initial residual = 1.09917e-08, Final residual = 3.44607e-17, No Iterations 2
diagonal:  Solving for rhoE, Initial residual = 0, Final residual = 0, No Iterations 0
smoothSolver:  Solving for h, Initial residual = 2.54751e-08, Final residual = 3.49859e-17, No Iterations 2
Sanity check: max(|rhoCont - rhoFromSpecies|) = 7.54952e-15

ExecutionTime = 41.16 s  ClockTime = 41 s

Mean and max Courant Numbers = 0.15176 0.193849
deltaT = 7.35041e-05
Time = 0.0559053

diagonal:  Solving for rhoCont, Initial residual = 0, Final residual = 0, No Iterations 0
diagonal:  Solving for rhoY_Y_N2, Initial residual = 0, Final residual = 0, No Iterations 0
diagonal:  Solving for rhoY_Y_O2, Initial residual = 0, Final residual = 0, No Iterations 0
diagonal:  Solving for rhoUx, Initial residual = 0, Final residual = 0, No Iterations 0
smoothSolver:  Solving for Ux, Initial residual = 9.99738e-09, Final residual = 3.53984e-17, No Iterations 2
diagonal:  Solving for rhoE, Initial residual = 0, Final residual = 0, No Iterations 0
smoothSolver:  Solving for h, Initial residual = 2.54016e-08, Final residual = 3.62592e-17, No Iterations 2
Sanity check: max(|rhoCont - rhoFromSpecies|) = 7.54952e-15

ExecutionTime = 41.23 s  ClockTime = 42 s

Mean and max Courant Numbers = 0.156307 0.197739
deltaT = 7.43446e-05
Time = 0.0559797

diagonal:  Solving for rhoCont, Initial residual = 0, Final residual = 0, No Iterations 0
diagonal:  Solving for rhoY_Y_N2, Initial residual = 0, Final residual = 0, No Iterations 0
diagonal:  Solving for rhoY_Y_O2, Initial residual = 0, Final residual = 0, No Iterations 0
diagonal:  Solving for rhoUx, Initial residual = 0, Final residual = 0, No Iterations 0
smoothSolver:  Solving for Ux, Initial residual = 9.49632e-09, Final residual = 3.78008e-17, No Iterations 2
diagonal:  Solving for rhoE, Initial residual = 0, Final residual = 0, No Iterations 0
smoothSolver:  Solving for h, Initial residual = 2.51625e-08, Final residual = 3.45256e-17, No Iterations 2
Sanity check: max(|rhoCont - rhoFromSpecies|) = 7.54952e-15

ExecutionTime = 41.3 s  ClockTime = 42 s

End

